135585373
  -OEChem-03282216172D

 47 48  0     1  0  0  0  0  0999 V2000
    6.8671    5.2500    0.0000 Cl  0  0  0  0  0  0  0  0  0  0  0  0
    4.2690   -5.2500    0.0000 O   0  0  0  0  0  0  0  0  0  0  0  0
    2.5369   -0.2500    0.0000 O   0  0  0  0  0  0  0  0  0  0  0  0
    6.0010   -0.2500    0.0000 O   0  0  0  0  0  0  0  0  0  0  0  0
    5.1350    2.2500    0.0000 O   0  0  0  0  0  0  0  0  0  0  0  0
    5.1350    1.2500    0.0000 N   0  0  0  0  0  0  0  0  0  0  0  0
    4.2690   -3.2500    0.0000 C   0  0  0  0  0  0  0  0  0  0  0  0
    4.2690   -2.2500    0.0000 C   0  0  3  0  0  0  0  0  0  0  0  0
    5.1350   -3.7500    0.0000 C   0  0  0  0  0  0  0  0  0  0  0  0
    3.4030   -3.7500    0.0000 C   0  0  0  0  0  0  0  0  0  0  0  0
    3.4030   -1.7500    0.0000 C   0  0  0  0  0  0  0  0  0  0  0  0
    5.1350   -1.7500    0.0000 C   0  0  0  0  0  0  0  0  0  0  0  0
    5.1350   -4.7500    0.0000 C   0  0  0  0  0  0  0  0  0  0  0  0
    3.4030   -4.7500    0.0000 C   0  0  0  0  0  0  0  0  0  0  0  0
    3.4030   -0.7500    0.0000 C   0  0  0  0  0  0  0  0  0  0  0  0
    5.1350   -0.7500    0.0000 C   0  0  0  0  0  0  0  0  0  0  0  0
    4.2690   -0.2500    0.0000 C   0  0  0  0  0  0  0  0  0  0  0  0
    4.2690    0.7500    0.0000 C   0  0  0  0  0  0  0  0  0  0  0  0
    3.4030    1.2500    0.0000 C   0  0  0  0  0  0  0  0  0  0  0  0
    3.4030    2.2500    0.0000 C   0  0  0  0  0  0  0  0  0  0  0  0
    6.0010    2.7500    0.0000 C   0  0  0  0  0  0  0  0  0  0  0  0
    6.0010    3.7500    0.0000 C   0  0  0  0  0  0  0  0  0  0  0  0
    6.8671    4.2500    0.0000 C   0  0  0  0  0  0  0  0  0  0  0  0
    4.8059   -2.9400    0.0000 H   0  0  0  0  0  0  0  0  0  0  0  0
    3.7320   -2.5600    0.0000 H   0  0  0  0  0  0  0  0  0  0  0  0
    5.7456   -3.8577    0.0000 H   0  0  0  0  0  0  0  0  0  0  0  0
    5.3471   -3.1674    0.0000 H   0  0  0  0  0  0  0  0  0  0  0  0
    3.1909   -3.1674    0.0000 H   0  0  0  0  0  0  0  0  0  0  0  0
    2.7924   -3.8577    0.0000 H   0  0  0  0  0  0  0  0  0  0  0  0
    2.7924   -1.6423    0.0000 H   0  0  0  0  0  0  0  0  0  0  0  0
    3.1909   -2.3326    0.0000 H   0  0  0  0  0  0  0  0  0  0  0  0
    5.3471   -2.3326    0.0000 H   0  0  0  0  0  0  0  0  0  0  0  0
    5.7456   -1.6423    0.0000 H   0  0  0  0  0  0  0  0  0  0  0  0
    5.3471   -5.3326    0.0000 H   0  0  0  0  0  0  0  0  0  0  0  0
    5.7456   -4.6423    0.0000 H   0  0  0  0  0  0  0  0  0  0  0  0
    2.7924   -4.6423    0.0000 H   0  0  0  0  0  0  0  0  0  0  0  0
    3.1909   -5.3326    0.0000 H   0  0  0  0  0  0  0  0  0  0  0  0
    2.0000   -0.5600    0.0000 H   0  0  0  0  0  0  0  0  0  0  0  0
    2.7924    1.3577    0.0000 H   0  0  0  0  0  0  0  0  0  0  0  0
    3.1909    0.6674    0.0000 H   0  0  0  0  0  0  0  0  0  0  0  0
    4.0230    2.2500    0.0000 H   0  0  0  0  0  0  0  0  0  0  0  0
    3.4030    2.8700    0.0000 H   0  0  0  0  0  0  0  0  0  0  0  0
    2.7830    2.2500    0.0000 H   0  0  0  0  0  0  0  0  0  0  0  0
    6.2131    2.1674    0.0000 H   0  0  0  0  0  0  0  0  0  0  0  0
    6.6116    2.8577    0.0000 H   0  0  0  0  0  0  0  0  0  0  0  0
    5.4641    4.0600    0.0000 H   0  0  0  0  0  0  0  0  0  0  0  0
    7.4040    3.9400    0.0000 H   0  0  0  0  0  0  0  0  0  0  0  0
  1 23  1  0  0  0  0
  2 13  1  0  0  0  0
  2 14  1  0  0  0  0
  3 15  1  0  0  0  0
  3 38  1  0  0  0  0
  4 16  2  0  0  0  0
  5  6  1  0  0  0  0
  5 21  1  0  0  0  0
  6 18  2  0  0  0  0
  7  8  1  0  0  0  0
  7  9  1  0  0  0  0
  7 10  1  0  0  0  0
  7 24  1  0  0  0  0
  8 11  1  0  0  0  0
  8 12  1  0  0  0  0
  8 25  1  0  0  0  0
  9 13  1  0  0  0  0
  9 26  1  0  0  0  0
  9 27  1  0  0  0  0
 10 14  1  0  0  0  0
 10 28  1  0  0  0  0
 10 29  1  0  0  0  0
 11 15  1  0  0  0  0
 11 30  1  0  0  0  0
 11 31  1  0  0  0  0
 12 16  1  0  0  0  0
 12 32  1  0  0  0  0
 12 33  1  0  0  0  0
 13 34  1  0  0  0  0
 13 35  1  0  0  0  0
 14 36  1  0  0  0  0
 14 37  1  0  0  0  0
 15 17  2  0  0  0  0
 16 17  1  0  0  0  0
 17 18  1  0  0  0  0
 18 19  1  0  0  0  0
 19 20  1  0  0  0  0
 19 39  1  0  0  0  0
 19 40  1  0  0  0  0
 20 41  1  0  0  0  0
 20 42  1  0  0  0  0
 20 43  1  0  0  0  0
 21 22  1  0  0  0  0
 21 44  1  0  0  0  0
 21 45  1  0  0  0  0
 22 23  2  0  0  0  0
 22 46  1  0  0  0  0
 23 47  1  0  0  0  0
M  END
> <PUBCHEM_COMPOUND_CID>
135585373

> <PUBCHEM_COMPOUND_CANONICALIZED>
1

> <PUBCHEM_CACTVS_COMPLEXITY>
507

> <PUBCHEM_CACTVS_HBOND_ACCEPTOR>
5

> <PUBCHEM_CACTVS_HBOND_DONOR>
1

> <PUBCHEM_CACTVS_ROTATABLE_BOND>
6

> <PUBCHEM_CACTVS_SUBSKEYS>
AAADceB6OAAEAAAAAAAAAAAAAAAAAAAAAAAkQAAAAAAAAAAAAAAAHgIECAAADQ+hgEICAAAQBgCoA6ByAAAAAAAgIAAICAEwAFgABBIAAQACQAAEgAAIAQOIzOAOgAAAAAAAAAAAAAAAAAAAAAAAAAAAAA==

> <PUBCHEM_IUPAC_OPENEYE_NAME>
2-[(E)-N-[(E)-3-chloroallyloxy]-C-ethyl-carbonimidoyl]-3-hydroxy-5-tetrahydropyran-4-yl-cyclohex-2-en-1-one

> <PUBCHEM_IUPAC_CAS_NAME>
2-[(1E)-1-[(E)-3-chloroprop-2-enoxy]iminopropyl]-3-hydroxy-5-(4-oxanyl)-1-cyclohex-2-enone

> <PUBCHEM_IUPAC_NAME_MARKUP>
2-[(<I>E</I>)-<I>N</I>-[(<I>E</I>)-3-chloroprop-2-enoxy]-<I>C</I>-ethylcarbonimidoyl]-3-hydroxy-5-(oxan-4-yl)cyclohex-2-en-1-one

> <PUBCHEM_IUPAC_NAME>
2-[(E)-N-[(E)-3-chloroprop-2-enoxy]-C-ethylcarbonimidoyl]-3-hydroxy-5-(oxan-4-yl)cyclohex-2-en-1-one

> <PUBCHEM_IUPAC_SYSTEMATIC_NAME>
2-[(E)-N-[(E)-3-chloranylprop-2-enoxy]-C-ethyl-carbonimidoyl]-5-(oxan-4-yl)-3-oxidanyl-cyclohex-2-en-1-one

> <PUBCHEM_IUPAC_TRADITIONAL_NAME>
2-[(E)-N-[(E)-3-chloroallyloxy]-C-ethyl-carbonimidoyl]-3-hydroxy-5-tetrahydropyran-4-yl-cyclohex-2-en-1-one

> <PUBCHEM_IUPAC_INCHI>
InChI=1S/C17H24ClNO4/c1-2-14(19-23-7-3-6-18)17-15(20)10-13(11-16(17)21)12-4-8-22-9-5-12/h3,6,12-13,20H,2,4-5,7-11H2,1H3/b6-3+,19-14+

> <PUBCHEM_IUPAC_INCHIKEY>
IOYNQIMAUDJVEI-BMVIKAAMSA-N

> <PUBCHEM_XLOGP3_AA>
2.6

> <PUBCHEM_EXACT_MASS>
341.1393859

> <PUBCHEM_MOLECULAR_FORMULA>
C17H24ClNO4

> <PUBCHEM_MOLECULAR_WEIGHT>
341.8

> <PUBCHEM_OPENEYE_CAN_SMILES>
CCC(=NOCC=CCl)C1=C(CC(CC1=O)C2CCOCC2)O

> <PUBCHEM_OPENEYE_ISO_SMILES>
CC/C(=N\OC/C=C/Cl)/C1=C(CC(CC1=O)C2CCOCC2)O

> <PUBCHEM_CACTVS_TPSA>
68.1

> <PUBCHEM_MONOISOTOPIC_WEIGHT>
341.1393859

> <PUBCHEM_TOTAL_CHARGE>
0

> <PUBCHEM_HEAVY_ATOM_COUNT>
23

> <PUBCHEM_ATOM_DEF_STEREO_COUNT>
0

> <PUBCHEM_ATOM_UDEF_STEREO_COUNT>
1

> <PUBCHEM_BOND_DEF_STEREO_COUNT>
2

> <PUBCHEM_BOND_UDEF_STEREO_COUNT>
0

> <PUBCHEM_ISOTOPIC_ATOM_COUNT>
0

> <PUBCHEM_COMPONENT_COUNT>
1

> <PUBCHEM_CACTVS_TAUTO_COUNT>
13

> <PUBCHEM_COORDINATE_TYPE>
1
5
255

> <PUBCHEM_BONDANNOTATIONS>
8  7  3

$$$$
