11571555
  -OEChem-03282216102D

 42 44  0     0  0  0  0  0  0999 V2000
    7.6279   -0.3840    0.0000 S   0  0  0  0  0  0  0  0  0  0  0  0
   10.4096   -1.8477    0.0000 F   0  0  0  0  0  0  0  0  0  0  0  0
   11.0073   -0.5660    0.0000 F   0  0  0  0  0  0  0  0  0  0  0  0
    9.7256    0.0317    0.0000 F   0  0  0  0  0  0  0  0  0  0  0  0
    6.6279   -2.1160    0.0000 O   0  0  0  0  0  0  0  0  0  0  0  0
    8.4939    0.1160    0.0000 O   0  0  0  0  0  0  0  0  0  0  0  0
    6.7619   -0.8840    0.0000 O   0  0  0  0  0  0  0  0  0  0  0  0
    3.7320    2.4820    0.0000 O   0  0  0  0  0  0  0  0  0  0  0  0
    2.0000   -0.5179    0.0000 O   0  0  0  0  0  0  0  0  0  0  0  0
    7.1279    0.4821    0.0000 N   0  0  0  0  0  0  0  0  0  0  0  0
    4.5981    0.9821    0.0000 N   0  0  0  0  0  0  0  0  0  0  0  0
    5.5443    1.2868    0.0000 N   0  0  0  0  0  0  0  0  0  0  0  0
    5.5443   -0.3227    0.0000 N   0  0  0  0  0  0  0  0  0  0  0  0
    8.1279   -2.9820    0.0000 N   0  0  0  0  0  0  0  0  0  0  0  0
    3.7320   -0.5179    0.0000 N   0  0  0  0  0  0  0  0  0  0  0  0
    8.1279   -1.2500    0.0000 C   0  0  0  0  0  0  0  0  0  0  0  0
    9.1279   -1.2500    0.0000 C   0  0  0  0  0  0  0  0  0  0  0  0
    7.6279   -2.1160    0.0000 C   0  0  0  0  0  0  0  0  0  0  0  0
    6.1279    0.4821    0.0000 C   0  0  0  0  0  0  0  0  0  0  0  0
    4.5981   -0.0179    0.0000 C   0  0  0  0  0  0  0  0  0  0  0  0
    9.6279   -2.1160    0.0000 C   0  0  0  0  0  0  0  0  0  0  0  0
   10.0676   -0.9080    0.0000 C   0  0  0  0  0  0  0  0  0  0  0  0
    3.7320    1.4820    0.0000 C   0  0  0  0  0  0  0  0  0  0  0  0
    9.1279   -2.9820    0.0000 C   0  0  0  0  0  0  0  0  0  0  0  0
    2.8660    0.9821    0.0000 C   0  0  0  0  0  0  0  0  0  0  0  0
    2.8660   -0.0179    0.0000 C   0  0  0  0  0  0  0  0  0  0  0  0
    6.1279   -2.9820    0.0000 C   0  0  0  0  0  0  0  0  0  0  0  0
    2.8660    2.9820    0.0000 C   0  0  0  0  0  0  0  0  0  0  0  0
    2.0000   -1.5180    0.0000 C   0  0  0  0  0  0  0  0  0  0  0  0
    7.4379    1.0190    0.0000 H   0  0  0  0  0  0  0  0  0  0  0  0
   10.2479   -2.1160    0.0000 H   0  0  0  0  0  0  0  0  0  0  0  0
    9.4379   -3.5190    0.0000 H   0  0  0  0  0  0  0  0  0  0  0  0
    2.3291    1.2920    0.0000 H   0  0  0  0  0  0  0  0  0  0  0  0
    5.5910   -2.6720    0.0000 H   0  0  0  0  0  0  0  0  0  0  0  0
    5.8179   -3.5190    0.0000 H   0  0  0  0  0  0  0  0  0  0  0  0
    6.6648   -3.2920    0.0000 H   0  0  0  0  0  0  0  0  0  0  0  0
    3.1760    3.5190    0.0000 H   0  0  0  0  0  0  0  0  0  0  0  0
    2.3291    3.2920    0.0000 H   0  0  0  0  0  0  0  0  0  0  0  0
    2.5560    2.4451    0.0000 H   0  0  0  0  0  0  0  0  0  0  0  0
    1.3800   -1.5180    0.0000 H   0  0  0  0  0  0  0  0  0  0  0  0
    2.0000   -2.1380    0.0000 H   0  0  0  0  0  0  0  0  0  0  0  0
    2.6200   -1.5180    0.0000 H   0  0  0  0  0  0  0  0  0  0  0  0
  1  6  2  0  0  0  0
  1  7  2  0  0  0  0
  1 10  1  0  0  0  0
  1 16  1  0  0  0  0
  2 22  1  0  0  0  0
  3 22  1  0  0  0  0
  4 22  1  0  0  0  0
  5 18  1  0  0  0  0
  5 27  1  0  0  0  0
  8 23  1  0  0  0  0
  8 28  1  0  0  0  0
  9 26  1  0  0  0  0
  9 29  1  0  0  0  0
 10 19  1  0  0  0  0
 10 30  1  0  0  0  0
 11 12  1  0  0  0  0
 11 20  1  0  0  0  0
 11 23  1  0  0  0  0
 12 19  2  0  0  0  0
 13 19  1  0  0  0  0
 13 20  2  0  0  0  0
 14 18  2  0  0  0  0
 14 24  1  0  0  0  0
 15 20  1  0  0  0  0
 15 26  2  0  0  0  0
 16 17  2  0  0  0  0
 16 18  1  0  0  0  0
 17 21  1  0  0  0  0
 17 22  1  0  0  0  0
 21 24  2  0  0  0  0
 21 31  1  0  0  0  0
 23 25  2  0  0  0  0
 24 32  1  0  0  0  0
 25 26  1  0  0  0  0
 25 33  1  0  0  0  0
 27 34  1  0  0  0  0
 27 35  1  0  0  0  0
 27 36  1  0  0  0  0
 28 37  1  0  0  0  0
 28 38  1  0  0  0  0
 28 39  1  0  0  0  0
 29 40  1  0  0  0  0
 29 41  1  0  0  0  0
 29 42  1  0  0  0  0
M  END
> <PUBCHEM_COMPOUND_CID>
11571555

> <PUBCHEM_COMPOUND_CANONICALIZED>
1

> <PUBCHEM_CACTVS_COMPLEXITY>
665

> <PUBCHEM_CACTVS_HBOND_ACCEPTOR>
13

> <PUBCHEM_CACTVS_HBOND_DONOR>
1

> <PUBCHEM_CACTVS_ROTATABLE_BOND>
6

> <PUBCHEM_CACTVS_SUBSKEYS>
AAADccBzuYBAAAAAAAAAAAAAAAAAAWAAAAAsWAAAAAAAAFgB+AAAHwQYQAAADADB2hY/lZZIFAKiAjBnZHDSjDsxIqAd2DY+bJiML2LE+NuEtCh/yB/I6CaQEAAKAAAAAAAAAAAAAAAAAAAAAAAAAAAAAA==

> <PUBCHEM_IUPAC_OPENEYE_NAME>
N-(5,7-dimethoxy-[1,2,4]triazolo[1,5-a]pyrimidin-2-yl)-2-methoxy-4-(trifluoromethyl)pyridine-3-sulfonamide

> <PUBCHEM_IUPAC_CAS_NAME>
N-(5,7-dimethoxy-[1,2,4]triazolo[1,5-a]pyrimidin-2-yl)-2-methoxy-4-(trifluoromethyl)-3-pyridinesulfonamide

> <PUBCHEM_IUPAC_NAME_MARKUP>
<I>N</I>-(5,7-dimethoxy-[1,2,4]triazolo[1,5-a]pyrimidin-2-yl)-2-methoxy-4-(trifluoromethyl)pyridine-3-sulfonamide

> <PUBCHEM_IUPAC_NAME>
N-(5,7-dimethoxy-[1,2,4]triazolo[1,5-a]pyrimidin-2-yl)-2-methoxy-4-(trifluoromethyl)pyridine-3-sulfonamide

> <PUBCHEM_IUPAC_SYSTEMATIC_NAME>
N-(5,7-dimethoxy-[1,2,4]triazolo[1,5-a]pyrimidin-2-yl)-2-methoxy-4-(trifluoromethyl)pyridine-3-sulfonamide

> <PUBCHEM_IUPAC_TRADITIONAL_NAME>
N-(5,7-dimethoxy-[1,2,4]triazolo[1,5-a]pyrimidin-2-yl)-2-methoxy-4-(trifluoromethyl)pyridine-3-sulfonamide

> <PUBCHEM_IUPAC_INCHI>
InChI=1S/C14H13F3N6O5S/c1-26-8-6-9(27-2)23-13(19-8)20-12(21-23)22-29(24,25)10-7(14(15,16)17)4-5-18-11(10)28-3/h4-6H,1-3H3,(H,21,22)

> <PUBCHEM_IUPAC_INCHIKEY>
GLBLPMUBLHYFCW-UHFFFAOYSA-N

> <PUBCHEM_XLOGP3_AA>
1.7

> <PUBCHEM_EXACT_MASS>
434.06202320

> <PUBCHEM_MOLECULAR_FORMULA>
C14H13F3N6O5S

> <PUBCHEM_MOLECULAR_WEIGHT>
434.35

> <PUBCHEM_OPENEYE_CAN_SMILES>
COC1=CC(=NC2=NC(=NN12)NS(=O)(=O)C3=C(C=CN=C3OC)C(F)(F)F)OC

> <PUBCHEM_OPENEYE_ISO_SMILES>
COC1=CC(=NC2=NC(=NN12)NS(=O)(=O)C3=C(C=CN=C3OC)C(F)(F)F)OC

> <PUBCHEM_CACTVS_TPSA>
138

> <PUBCHEM_MONOISOTOPIC_WEIGHT>
434.06202320

> <PUBCHEM_TOTAL_CHARGE>
0

> <PUBCHEM_HEAVY_ATOM_COUNT>
29

> <PUBCHEM_ATOM_DEF_STEREO_COUNT>
0

> <PUBCHEM_ATOM_UDEF_STEREO_COUNT>
0

> <PUBCHEM_BOND_DEF_STEREO_COUNT>
0

> <PUBCHEM_BOND_UDEF_STEREO_COUNT>
0

> <PUBCHEM_ISOTOPIC_ATOM_COUNT>
0

> <PUBCHEM_COMPONENT_COUNT>
1

> <PUBCHEM_CACTVS_TAUTO_COUNT>
2

> <PUBCHEM_COORDINATE_TYPE>
1
5
255

> <PUBCHEM_BONDANNOTATIONS>
11  12  8
11  20  8
11  23  8
12  19  8
13  19  8
13  20  8
14  18  8
14  24  8
15  20  8
15  26  8
16  17  8
16  18  8
17  21  8
21  24  8
23  25  8
25  26  8

$$$$
