3589
  -OEChem-03282214532D

 22 24  0     1  0  0  0  0  0999 V2000
    4.7225   -1.3367    0.0000 Cl  0  0  0  0  0  0  0  0  0  0  0  0
    5.4989    1.5610    0.0000 Cl  0  0  0  0  0  0  0  0  0  0  0  0
    4.6080    2.5723    0.0000 Cl  0  0  0  0  0  0  0  0  0  0  0  0
    3.5899    1.9845    0.0000 Cl  0  0  0  0  0  0  0  0  0  0  0  0
    2.8568   -2.5723    0.0000 Cl  0  0  0  0  0  0  0  0  0  0  0  0
    6.8802   -1.7456    0.0000 Cl  0  0  0  0  0  0  0  0  0  0  0  0
    7.5051    0.5863    0.0000 Cl  0  0  0  0  0  0  0  0  0  0  0  0
    3.6086   -0.9628    0.0000 C   0  0  3  0  0  0  0  0  0  0  0  0
    3.2666   -0.0231    0.0000 C   0  0  3  0  0  0  0  0  0  0  0  0
    4.9813   -0.3708    0.0000 C   0  0  3  0  0  0  0  0  0  0  0  0
    5.2401    0.5951    0.0000 C   0  0  3  0  0  0  0  0  0  0  0  0
    4.5035    1.5777    0.0000 C   0  0  0  0  0  0  0  0  0  0  0  0
    2.8237   -1.5728    0.0000 C   0  0  3  0  0  0  0  0  0  0  0  0
    6.3802   -0.8796    0.0000 C   0  0  0  0  0  0  0  0  0  0  0  0
    6.6390    0.0863    0.0000 C   0  0  0  0  0  0  0  0  0  0  0  0
    2.2732   -0.0604    0.0000 C   0  0  0  0  0  0  0  0  0  0  0  0
    2.0000   -1.0162    0.0000 C   0  0  0  0  0  0  0  0  0  0  0  0
    3.9241   -1.4965    0.0000 H   0  0  0  0  0  0  0  0  0  0  0  0
    3.1613    0.5879    0.0000 H   0  0  0  0  0  0  0  0  0  0  0  0
    2.2810   -1.8727    0.0000 H   0  0  0  0  0  0  0  0  0  0  0  0
    1.8906    0.4275    0.0000 H   0  0  0  0  0  0  0  0  0  0  0  0
    1.4174   -1.2283    0.0000 H   0  0  0  0  0  0  0  0  0  0  0  0
  1 10  1  0  0  0  0
  2 11  1  0  0  0  0
  3 12  1  0  0  0  0
  4 12  1  0  0  0  0
  5 13  1  0  0  0  0
  6 14  1  0  0  0  0
  7 15  1  0  0  0  0
  8  9  1  0  0  0  0
  8 10  1  0  0  0  0
  8 13  1  0  0  0  0
  8 18  1  0  0  0  0
  9 11  1  0  0  0  0
  9 16  1  0  0  0  0
  9 19  1  0  0  0  0
 10 12  1  0  0  0  0
 10 14  1  0  0  0  0
 11 12  1  0  0  0  0
 11 15  1  0  0  0  0
 13 17  1  0  0  0  0
 13 20  1  0  0  0  0
 14 15  2  0  0  0  0
 16 17  2  0  0  0  0
 16 21  1  0  0  0  0
 17 22  1  0  0  0  0
M  END
> <PUBCHEM_COMPOUND_CID>
3589

> <PUBCHEM_COMPOUND_CANONICALIZED>
1

> <PUBCHEM_CACTVS_COMPLEXITY>
467

> <PUBCHEM_CACTVS_HBOND_ACCEPTOR>
0

> <PUBCHEM_CACTVS_HBOND_DONOR>
0

> <PUBCHEM_CACTVS_ROTATABLE_BOND>
0

> <PUBCHEM_CACTVS_SUBSKEYS>
AAADcYBwAAAHAAAAAAAAAAAAAAAAAYIEAAAgAAAAAAAQAAAAAAAAGAIAAAAADQOAAMAAAAAAAACAACBCAAAAAAAgAAAICEAAAggAAAIBAQAAAAAAgAAIAAMAgMAOgAAAAAAAAAAAAAAAAAAAARAASIACAA==

> <PUBCHEM_IUPAC_OPENEYE_NAME>
1,5,7,8,9,10,10-heptachlorotricyclo[5.2.1.02,6]deca-3,8-diene

> <PUBCHEM_IUPAC_CAS_NAME>
1,5,7,8,9,10,10-heptachlorotricyclo[5.2.1.02,6]deca-3,8-diene

> <PUBCHEM_IUPAC_NAME_MARKUP>
1,5,7,8,9,10,10-heptachlorotricyclo[5.2.1.0<SUP>2,6</SUP>]deca-3,8-diene

> <PUBCHEM_IUPAC_NAME>
1,5,7,8,9,10,10-heptachlorotricyclo[5.2.1.02,6]deca-3,8-diene

> <PUBCHEM_IUPAC_SYSTEMATIC_NAME>
1,5,7,8,9,10,10-heptakis(chloranyl)tricyclo[5.2.1.02,6]deca-3,8-diene

> <PUBCHEM_IUPAC_TRADITIONAL_NAME>
1,5,7,8,9,10,10-heptachlorotricyclo[5.2.1.02,6]deca-3,8-diene

> <PUBCHEM_IUPAC_INCHI>
InChI=1S/C10H5Cl7/c11-4-2-1-3-5(4)9(15)7(13)6(12)8(3,14)10(9,16)17/h1-5H

> <PUBCHEM_IUPAC_INCHIKEY>
FRCCEHPWNOQAEU-UHFFFAOYSA-N

> <PUBCHEM_XLOGP3_AA>
4.3

> <PUBCHEM_EXACT_MASS>
371.818144

> <PUBCHEM_MOLECULAR_FORMULA>
C10H5Cl7

> <PUBCHEM_MOLECULAR_WEIGHT>
373.3

> <PUBCHEM_OPENEYE_CAN_SMILES>
C1=CC(C2C1C3(C(=C(C2(C3(Cl)Cl)Cl)Cl)Cl)Cl)Cl

> <PUBCHEM_OPENEYE_ISO_SMILES>
C1=CC(C2C1C3(C(=C(C2(C3(Cl)Cl)Cl)Cl)Cl)Cl)Cl

> <PUBCHEM_CACTVS_TPSA>
0

> <PUBCHEM_MONOISOTOPIC_WEIGHT>
369.821094

> <PUBCHEM_TOTAL_CHARGE>
0

> <PUBCHEM_HEAVY_ATOM_COUNT>
17

> <PUBCHEM_ATOM_DEF_STEREO_COUNT>
0

> <PUBCHEM_ATOM_UDEF_STEREO_COUNT>
5

> <PUBCHEM_BOND_DEF_STEREO_COUNT>
0

> <PUBCHEM_BOND_UDEF_STEREO_COUNT>
0

> <PUBCHEM_ISOTOPIC_ATOM_COUNT>
0

> <PUBCHEM_COMPONENT_COUNT>
1

> <PUBCHEM_CACTVS_TAUTO_COUNT>
-1

> <PUBCHEM_COORDINATE_TYPE>
1
5
255

> <PUBCHEM_BONDANNOTATIONS>
10  12  3
11  12  3
13  5  3
8  13  3
9  16  3

$$$$
