5360461
  -OEChem-03282214192D

 34 34  0     0  0  0  0  0  0999 V2000
    2.0000   -0.1830    0.0000 Cl  0  0  0  0  0  0  0  0  0  0  0  0
    5.8301    2.1830    0.0000 S   0  0  0  0  0  0  0  0  0  0  0  0
    6.3301    1.3170    0.0000 P   0  0  0  0  0  0  0  0  0  0  0  0
    7.1962    1.8170    0.0000 O   0  0  0  0  0  0  0  0  0  0  0  0
    6.8301    0.4510    0.0000 O   0  0  0  0  0  0  0  0  0  0  0  0
    5.4641    0.8170    0.0000 O   0  0  0  0  0  0  0  0  0  0  0  0
    4.5981    1.3170    0.0000 N   0  0  0  0  0  0  0  0  0  0  0  0
    2.0000    1.8170    0.0000 N   0  0  0  0  0  0  0  0  0  0  0  0
    8.0622    1.3170    0.0000 C   0  0  0  0  0  0  0  0  0  0  0  0
    6.3301   -0.4151    0.0000 C   0  0  0  0  0  0  0  0  0  0  0  0
    3.7320   -0.1830    0.0000 C   0  0  0  0  0  0  0  0  0  0  0  0
    8.9282    1.8170    0.0000 C   0  0  0  0  0  0  0  0  0  0  0  0
    6.8301   -1.2811    0.0000 C   0  0  0  0  0  0  0  0  0  0  0  0
    2.8660   -0.6830    0.0000 C   0  0  0  0  0  0  0  0  0  0  0  0
    4.5981   -0.6830    0.0000 C   0  0  0  0  0  0  0  0  0  0  0  0
    3.7320    0.8170    0.0000 C   0  0  0  0  0  0  0  0  0  0  0  0
    2.8660   -1.6830    0.0000 C   0  0  0  0  0  0  0  0  0  0  0  0
    4.5981   -1.6830    0.0000 C   0  0  0  0  0  0  0  0  0  0  0  0
    3.7320   -2.1830    0.0000 C   0  0  0  0  0  0  0  0  0  0  0  0
    2.8660    1.3170    0.0000 C   0  0  0  0  0  0  0  0  0  0  0  0
    7.6636    0.8420    0.0000 H   0  0  0  0  0  0  0  0  0  0  0  0
    8.4607    0.8420    0.0000 H   0  0  0  0  0  0  0  0  0  0  0  0
    5.8552   -0.0165    0.0000 H   0  0  0  0  0  0  0  0  0  0  0  0
    5.8552   -0.8136    0.0000 H   0  0  0  0  0  0  0  0  0  0  0  0
    9.2382    1.2800    0.0000 H   0  0  0  0  0  0  0  0  0  0  0  0
    9.4651    2.1270    0.0000 H   0  0  0  0  0  0  0  0  0  0  0  0
    8.6182    2.3539    0.0000 H   0  0  0  0  0  0  0  0  0  0  0  0
    6.2932   -1.5911    0.0000 H   0  0  0  0  0  0  0  0  0  0  0  0
    7.1401   -1.8180    0.0000 H   0  0  0  0  0  0  0  0  0  0  0  0
    7.3671   -0.9711    0.0000 H   0  0  0  0  0  0  0  0  0  0  0  0
    5.1350   -0.3730    0.0000 H   0  0  0  0  0  0  0  0  0  0  0  0
    2.3291   -1.9930    0.0000 H   0  0  0  0  0  0  0  0  0  0  0  0
    5.1350   -1.9930    0.0000 H   0  0  0  0  0  0  0  0  0  0  0  0
    3.7320   -2.8030    0.0000 H   0  0  0  0  0  0  0  0  0  0  0  0
  1 14  1  0  0  0  0
  2  3  2  0  0  0  0
  3  4  1  0  0  0  0
  3  5  1  0  0  0  0
  3  6  1  0  0  0  0
  4  9  1  0  0  0  0
  5 10  1  0  0  0  0
  6  7  1  0  0  0  0
  7 16  2  0  0  0  0
  8 20  3  0  0  0  0
  9 12  1  0  0  0  0
  9 21  1  0  0  0  0
  9 22  1  0  0  0  0
 10 13  1  0  0  0  0
 10 23  1  0  0  0  0
 10 24  1  0  0  0  0
 11 14  1  0  0  0  0
 11 15  2  0  0  0  0
 11 16  1  0  0  0  0
 12 25  1  0  0  0  0
 12 26  1  0  0  0  0
 12 27  1  0  0  0  0
 13 28  1  0  0  0  0
 13 29  1  0  0  0  0
 13 30  1  0  0  0  0
 14 17  2  0  0  0  0
 15 18  1  0  0  0  0
 15 31  1  0  0  0  0
 16 20  1  0  0  0  0
 17 19  1  0  0  0  0
 17 32  1  0  0  0  0
 18 19  2  0  0  0  0
 18 33  1  0  0  0  0
 19 34  1  0  0  0  0
M  END
> <PUBCHEM_COMPOUND_CID>
5360461

> <PUBCHEM_COMPOUND_CANONICALIZED>
1

> <PUBCHEM_CACTVS_COMPLEXITY>
428

> <PUBCHEM_CACTVS_HBOND_ACCEPTOR>
6

> <PUBCHEM_CACTVS_HBOND_DONOR>
0

> <PUBCHEM_CACTVS_ROTATABLE_BOND>
7

> <PUBCHEM_CACTVS_SUBSKEYS>
AAADccBzMAJEAAAAAAAAAAAAAAAAAAAAAAAwAAAAAAAAAAABAAAAHgIEACAADAqhmCIyAIAQARCwByBiAAACAAAgBQAIiAAgApgIoKKBExCAIAAggAAIiA8AgIAOAAAAAAABAAAAAAAAAAIAAAAAAAAAAA==

> <PUBCHEM_IUPAC_OPENEYE_NAME>
(1E)-2-chloro-N-diethoxyphosphinothioyloxy-benzimidoyl cyanide

> <PUBCHEM_IUPAC_CAS_NAME>
(2E)-2-(2-chlorophenyl)-2-diethoxyphosphinothioyloxyiminoacetonitrile

> <PUBCHEM_IUPAC_NAME_MARKUP>
(1<I>E</I>)-2-chloro-<I>N</I>-diethoxyphosphinothioyloxybenzenecarboximidoyl cyanide

> <PUBCHEM_IUPAC_NAME>
(1E)-2-chloro-N-diethoxyphosphinothioyloxybenzenecarboximidoyl cyanide

> <PUBCHEM_IUPAC_SYSTEMATIC_NAME>
(2E)-2-(2-chlorophenyl)-2-diethoxyphosphinothioyloxyimino-ethanenitrile

> <PUBCHEM_IUPAC_TRADITIONAL_NAME>
(2E)-2-(2-chlorophenyl)-2-diethoxythiophosphoryloximino-acetonitrile

> <PUBCHEM_IUPAC_INCHI>
InChI=1S/C12H14ClN2O3PS/c1-3-16-19(20,17-4-2)18-15-12(9-14)10-7-5-6-8-11(10)13/h5-8H,3-4H2,1-2H3/b15-12-

> <PUBCHEM_IUPAC_INCHIKEY>
GQKRUMZWUHSLJF-QINSGFPZSA-N

> <PUBCHEM_XLOGP3>
5

> <PUBCHEM_EXACT_MASS>
332.0151282

> <PUBCHEM_MOLECULAR_FORMULA>
C12H14ClN2O3PS

> <PUBCHEM_MOLECULAR_WEIGHT>
332.74

> <PUBCHEM_OPENEYE_CAN_SMILES>
CCOP(=S)(OCC)ON=C(C#N)C1=CC=CC=C1Cl

> <PUBCHEM_OPENEYE_ISO_SMILES>
CCOP(=S)(OCC)O/N=C(/C#N)\C1=CC=CC=C1Cl

> <PUBCHEM_CACTVS_TPSA>
95.9

> <PUBCHEM_MONOISOTOPIC_WEIGHT>
332.0151282

> <PUBCHEM_TOTAL_CHARGE>
0

> <PUBCHEM_HEAVY_ATOM_COUNT>
20

> <PUBCHEM_ATOM_DEF_STEREO_COUNT>
0

> <PUBCHEM_ATOM_UDEF_STEREO_COUNT>
0

> <PUBCHEM_BOND_DEF_STEREO_COUNT>
1

> <PUBCHEM_BOND_UDEF_STEREO_COUNT>
0

> <PUBCHEM_ISOTOPIC_ATOM_COUNT>
0

> <PUBCHEM_COMPONENT_COUNT>
1

> <PUBCHEM_CACTVS_TAUTO_COUNT>
1

> <PUBCHEM_COORDINATE_TYPE>
1
5
255

> <PUBCHEM_BONDANNOTATIONS>
11  14  8
11  15  8
14  17  8
15  18  8
17  19  8
18  19  8

$$$$
