71310221
  -OEChem-03282216282D

107109  0     1  0  0  0  0  0999 V2000
    5.0792    4.3137    0.0000 O   0  0  0  0  0  0  0  0  0  0  0  0
    5.8703   17.2853    0.0000 O   0  0  0  0  0  0  0  0  0  0  0  0
    6.4804    3.2957    0.0000 O   0  0  0  0  0  0  0  0  0  0  0  0
    7.2716   16.2672    0.0000 O   0  0  0  0  0  0  0  0  0  0  0  0
    1.6111   13.7470    0.0000 O   0  0  0  0  0  0  0  0  0  0  0  0
    1.7922   15.4696    0.0000 O   0  0  0  0  0  0  0  0  0  0  0  0
    7.9270    6.3828    0.0000 O   0  0  0  0  0  0  0  0  0  0  0  0
    8.7182   19.3544    0.0000 O   0  0  0  0  0  0  0  0  0  0  0  0
    4.7936    1.5966    0.0000 C   0  0  0  0  0  0  0  0  0  0  0  0
    5.5848   14.5682    0.0000 C   0  0  0  0  0  0  0  0  0  0  0  0
    3.9846    2.1844    0.0000 C   0  0  3  0  0  0  0  0  0  0  0  0
    4.8981    2.5912    0.0000 C   0  0  1  0  0  0  0  0  0  0  0  0
    4.7757   15.1560    0.0000 C   0  0  3  0  0  0  0  0  0  0  0  0
    5.6893   15.5628    0.0000 C   0  0  1  0  0  0  0  0  0  0  0  0
    4.2058    0.7876    0.0000 C   0  0  0  0  0  0  0  0  0  0  0  0
    5.7881    1.4921    0.0000 C   0  0  0  0  0  0  0  0  0  0  0  0
    4.9970   13.7592    0.0000 C   0  0  0  0  0  0  0  0  0  0  0  0
    6.5793   14.4637    0.0000 C   0  0  0  0  0  0  0  0  0  0  0  0
    2.9901    2.2890    0.0000 C   0  0  0  0  0  0  0  0  0  0  0  0
    3.7812   15.2606    0.0000 C   0  0  0  0  0  0  0  0  0  0  0  0
    5.4859    3.4002    0.0000 C   0  0  0  0  0  0  0  0  0  0  0  0
    6.2771   16.3718    0.0000 C   0  0  0  0  0  0  0  0  0  0  0  0
    2.4023    1.4799    0.0000 C   0  0  0  0  0  0  0  0  0  0  0  0
    3.1934   14.4515    0.0000 C   0  0  0  0  0  0  0  0  0  0  0  0
    5.6670    5.1228    0.0000 C   0  0  1  0  0  0  0  0  0  0  0  0
    6.4581   18.0943    0.0000 C   0  0  3  0  0  0  0  0  0  0  0  0
    1.4078    1.5845    0.0000 C   0  0  0  0  0  0  0  0  0  0  0  0
    2.8090    0.5664    0.0000 C   0  0  0  0  0  0  0  0  0  0  0  0
    3.6002   13.5380    0.0000 C   0  0  0  0  0  0  0  0  0  0  0  0
    2.1989   14.5561    0.0000 C   0  0  0  0  0  0  0  0  0  0  0  0
    6.6670    5.1228    0.0000 C   0  0  0  0  0  0  0  0  0  0  0  0
    7.4581   18.0943    0.0000 C   0  0  0  0  0  0  0  0  0  0  0  0
    5.3580    6.0738    0.0000 C   0  0  0  0  0  0  0  0  0  0  0  0
    6.1491   19.0454    0.0000 C   0  0  0  0  0  0  0  0  0  0  0  0
    6.1670    6.6616    0.0000 C   0  0  0  0  0  0  0  0  0  0  0  0
    6.9581   19.6332    0.0000 C   0  0  0  0  0  0  0  0  0  0  0  0
    6.9760    6.0738    0.0000 C   0  0  0  0  0  0  0  0  0  0  0  0
    7.7671   19.0454    0.0000 C   0  0  0  0  0  0  0  0  0  0  0  0
    4.4069    6.3828    0.0000 C   0  0  0  0  0  0  0  0  0  0  0  0
    5.1980   19.3544    0.0000 C   0  0  0  0  0  0  0  0  0  0  0  0
    6.1670    7.6616    0.0000 C   0  0  0  0  0  0  0  0  0  0  0  0
    6.9581   20.6332    0.0000 C   0  0  0  0  0  0  0  0  0  0  0  0
    0.6166   13.8516    0.0000 C   0  0  0  0  0  0  0  0  0  0  0  0
    7.0330    8.1616    0.0000 C   0  0  0  0  0  0  0  0  0  0  0  0
    7.8241   21.1332    0.0000 C   0  0  0  0  0  0  0  0  0  0  0  0
    7.0330    9.1616    0.0000 C   0  0  0  0  0  0  0  0  0  0  0  0
    7.8241   22.1332    0.0000 C   0  0  0  0  0  0  0  0  0  0  0  0
    7.8990    9.6616    0.0000 C   0  0  0  0  0  0  0  0  0  0  0  0
    8.6902   22.6332    0.0000 C   0  0  0  0  0  0  0  0  0  0  0  0
    7.8990   10.6616    0.0000 C   0  0  0  0  0  0  0  0  0  0  0  0
    8.6902   23.6332    0.0000 C   0  0  0  0  0  0  0  0  0  0  0  0
    3.8876    2.7968    0.0000 H   0  0  0  0  0  0  0  0  0  0  0  0
    4.5080    3.0730    0.0000 H   0  0  0  0  0  0  0  0  0  0  0  0
    4.6788   15.7684    0.0000 H   0  0  0  0  0  0  0  0  0  0  0  0
    6.2681   15.3406    0.0000 H   0  0  0  0  0  0  0  0  0  0  0  0
    3.7042    1.1521    0.0000 H   0  0  0  0  0  0  0  0  0  0  0  0
    3.8414    0.2860    0.0000 H   0  0  0  0  0  0  0  0  0  0  0  0
    4.7074    0.4232    0.0000 H   0  0  0  0  0  0  0  0  0  0  0  0
    5.7233    0.8755    0.0000 H   0  0  0  0  0  0  0  0  0  0  0  0
    6.4047    1.4273    0.0000 H   0  0  0  0  0  0  0  0  0  0  0  0
    5.8529    2.1087    0.0000 H   0  0  0  0  0  0  0  0  0  0  0  0
    4.4954   14.1236    0.0000 H   0  0  0  0  0  0  0  0  0  0  0  0
    4.6325   13.2576    0.0000 H   0  0  0  0  0  0  0  0  0  0  0  0
    5.4986   13.3948    0.0000 H   0  0  0  0  0  0  0  0  0  0  0  0
    6.5145   13.8471    0.0000 H   0  0  0  0  0  0  0  0  0  0  0  0
    7.1959   14.3989    0.0000 H   0  0  0  0  0  0  0  0  0  0  0  0
    6.6441   15.0803    0.0000 H   0  0  0  0  0  0  0  0  0  0  0  0
    2.7379    2.8554    0.0000 H   0  0  0  0  0  0  0  0  0  0  0  0
    3.5290   15.8269    0.0000 H   0  0  0  0  0  0  0  0  0  0  0  0
    5.0546    5.2197    0.0000 H   0  0  0  0  0  0  0  0  0  0  0  0
    6.7396   17.5419    0.0000 H   0  0  0  0  0  0  0  0  0  0  0  0
    1.4726    2.2011    0.0000 H   0  0  0  0  0  0  0  0  0  0  0  0
    0.7912    1.6493    0.0000 H   0  0  0  0  0  0  0  0  0  0  0  0
    1.3430    0.9679    0.0000 H   0  0  0  0  0  0  0  0  0  0  0  0
    2.2426    0.3142    0.0000 H   0  0  0  0  0  0  0  0  0  0  0  0
    3.0612    0.0000    0.0000 H   0  0  0  0  0  0  0  0  0  0  0  0
    3.3754    0.8186    0.0000 H   0  0  0  0  0  0  0  0  0  0  0  0
    3.0338   13.2858    0.0000 H   0  0  0  0  0  0  0  0  0  0  0  0
    3.8524   12.9716    0.0000 H   0  0  0  0  0  0  0  0  0  0  0  0
    4.1666   13.7902    0.0000 H   0  0  0  0  0  0  0  0  0  0  0  0
    6.6022    4.5061    0.0000 H   0  0  0  0  0  0  0  0  0  0  0  0
    7.2734    4.9938    0.0000 H   0  0  0  0  0  0  0  0  0  0  0  0
    7.3933   17.4777    0.0000 H   0  0  0  0  0  0  0  0  0  0  0  0
    8.0646   17.9654    0.0000 H   0  0  0  0  0  0  0  0  0  0  0  0
    4.5985    6.9725    0.0000 H   0  0  0  0  0  0  0  0  0  0  0  0
    3.8172    6.5744    0.0000 H   0  0  0  0  0  0  0  0  0  0  0  0
    4.2153    5.7932    0.0000 H   0  0  0  0  0  0  0  0  0  0  0  0
    5.3896   19.9441    0.0000 H   0  0  0  0  0  0  0  0  0  0  0  0
    4.6084   19.5460    0.0000 H   0  0  0  0  0  0  0  0  0  0  0  0
    5.0065   18.7648    0.0000 H   0  0  0  0  0  0  0  0  0  0  0  0
    5.9549    8.2442    0.0000 H   0  0  0  0  0  0  0  0  0  0  0  0
    5.5564    7.5539    0.0000 H   0  0  0  0  0  0  0  0  0  0  0  0
    6.7461   21.2158    0.0000 H   0  0  0  0  0  0  0  0  0  0  0  0
    6.3475   20.5255    0.0000 H   0  0  0  0  0  0  0  0  0  0  0  0
    0.6814   14.4682    0.0000 H   0  0  0  0  0  0  0  0  0  0  0  0
    0.0000   13.9164    0.0000 H   0  0  0  0  0  0  0  0  0  0  0  0
    0.5518   13.2350    0.0000 H   0  0  0  0  0  0  0  0  0  0  0  0
    7.5699    7.8516    0.0000 H   0  0  0  0  0  0  0  0  0  0  0  0
    8.3611   20.8232    0.0000 H   0  0  0  0  0  0  0  0  0  0  0  0
    6.4960    9.4716    0.0000 H   0  0  0  0  0  0  0  0  0  0  0  0
    7.2872   22.4432    0.0000 H   0  0  0  0  0  0  0  0  0  0  0  0
    8.4360    9.3516    0.0000 H   0  0  0  0  0  0  0  0  0  0  0  0
    9.2271   22.3232    0.0000 H   0  0  0  0  0  0  0  0  0  0  0  0
    8.4360   10.9716    0.0000 H   0  0  0  0  0  0  0  0  0  0  0  0
    7.3621   10.9716    0.0000 H   0  0  0  0  0  0  0  0  0  0  0  0
    9.2271   23.9432    0.0000 H   0  0  0  0  0  0  0  0  0  0  0  0
    8.1532   23.9432    0.0000 H   0  0  0  0  0  0  0  0  0  0  0  0
  1 21  1  0  0  0  0
 25  1  1  6  0  0  0
  2 22  1  0  0  0  0
  2 26  1  0  0  0  0
  3 21  2  0  0  0  0
  4 22  2  0  0  0  0
  5 30  1  0  0  0  0
  5 43  1  0  0  0  0
  6 30  2  0  0  0  0
  7 37  2  0  0  0  0
  8 38  2  0  0  0  0
  9 11  1  0  0  0  0
  9 12  1  0  0  0  0
  9 15  1  0  0  0  0
  9 16  1  0  0  0  0
 10 13  1  0  0  0  0
 10 14  1  0  0  0  0
 10 17  1  0  0  0  0
 10 18  1  0  0  0  0
 11 12  1  0  0  0  0
 11 19  1  0  0  0  0
 11 52  1  0  0  0  0
 12 21  1  1  0  0  0
 12 53  1  0  0  0  0
 13 14  1  0  0  0  0
 13 20  1  0  0  0  0
 13 54  1  0  0  0  0
 14 22  1  1  0  0  0
 14 55  1  0  0  0  0
 15 56  1  0  0  0  0
 15 57  1  0  0  0  0
 15 58  1  0  0  0  0
 16 59  1  0  0  0  0
 16 60  1  0  0  0  0
 16 61  1  0  0  0  0
 17 62  1  0  0  0  0
 17 63  1  0  0  0  0
 17 64  1  0  0  0  0
 18 65  1  0  0  0  0
 18 66  1  0  0  0  0
 18 67  1  0  0  0  0
 19 23  2  0  0  0  0
 19 68  1  0  0  0  0
 20 24  2  0  0  0  0
 20 69  1  0  0  0  0
 23 27  1  0  0  0  0
 23 28  1  0  0  0  0
 24 29  1  0  0  0  0
 24 30  1  0  0  0  0
 25 31  1  0  0  0  0
 25 33  1  0  0  0  0
 25 70  1  0  0  0  0
 26 32  1  0  0  0  0
 26 34  1  0  0  0  0
 26 71  1  0  0  0  0
 27 72  1  0  0  0  0
 27 73  1  0  0  0  0
 27 74  1  0  0  0  0
 28 75  1  0  0  0  0
 28 76  1  0  0  0  0
 28 77  1  0  0  0  0
 29 78  1  0  0  0  0
 29 79  1  0  0  0  0
 29 80  1  0  0  0  0
 31 37  1  0  0  0  0
 31 81  1  0  0  0  0
 31 82  1  0  0  0  0
 32 38  1  0  0  0  0
 32 83  1  0  0  0  0
 32 84  1  0  0  0  0
 33 35  2  0  0  0  0
 33 39  1  0  0  0  0
 34 36  2  0  0  0  0
 34 40  1  0  0  0  0
 35 37  1  0  0  0  0
 35 41  1  0  0  0  0
 36 38  1  0  0  0  0
 36 42  1  0  0  0  0
 39 85  1  0  0  0  0
 39 86  1  0  0  0  0
 39 87  1  0  0  0  0
 40 88  1  0  0  0  0
 40 89  1  0  0  0  0
 40 90  1  0  0  0  0
 41 44  1  0  0  0  0
 41 91  1  0  0  0  0
 41 92  1  0  0  0  0
 42 45  1  0  0  0  0
 42 93  1  0  0  0  0
 42 94  1  0  0  0  0
 43 95  1  0  0  0  0
 43 96  1  0  0  0  0
 43 97  1  0  0  0  0
 44 46  2  0  0  0  0
 44 98  1  0  0  0  0
 45 47  2  0  0  0  0
 45 99  1  0  0  0  0
 46 48  1  0  0  0  0
 46100  1  0  0  0  0
 47 49  1  0  0  0  0
 47101  1  0  0  0  0
 48 50  2  0  0  0  0
 48102  1  0  0  0  0
 49 51  2  0  0  0  0
 49103  1  0  0  0  0
 50104  1  0  0  0  0
 50105  1  0  0  0  0
 51106  1  0  0  0  0
 51107  1  0  0  0  0
M  END
> <PUBCHEM_COMPOUND_CID>
71310221

> <PUBCHEM_COMPOUND_CANONICALIZED>
1

> <PUBCHEM_CACTVS_COMPLEXITY>
1390

> <PUBCHEM_CACTVS_HBOND_ACCEPTOR>
8

> <PUBCHEM_CACTVS_HBOND_DONOR>
0

> <PUBCHEM_CACTVS_ROTATABLE_BOND>
16

> <PUBCHEM_CACTVS_SUBSKEYS>
AAADcfB8PAAAAAAAAAAAAAAAGDAAAQIAAAAAAAAAAAAAAAAAAAAAGgAAAAAADxSggAICCAAABACIAqDSCAAAAAAgAAAICAEAAEgIBBYAIQACEAAEoAAIoYOIwIAPgAAAAAAAAAAAAAAAAAAAAAAAAAAAAA==

> <PUBCHEM_IUPAC_OPENEYE_NAME>
[(1S)-2-methyl-4-oxo-3-[(2E)-penta-2,4-dienyl]cyclopent-2-en-1-yl] (1R)-2,2-dimethyl-3-(2-methylprop-1-enyl)cyclopropanecarboxylate;[2-methyl-4-oxo-3-[(2E)-penta-2,4-dienyl]cyclopent-2-en-1-yl] (1R)-3-[(E)-3-methoxy-2-methyl-3-oxo-prop-1-enyl]-2,2-dimethyl-cyclopropanecarboxylate

> <PUBCHEM_IUPAC_CAS_NAME>
(1R)-2,2-dimethyl-3-(2-methylprop-1-enyl)-1-cyclopropanecarboxylic acid [(1S)-2-methyl-4-oxo-3-[(2E)-penta-2,4-dienyl]-1-cyclopent-2-enyl] ester;(1R)-3-[(E)-3-methoxy-2-methyl-3-oxoprop-1-enyl]-2,2-dimethyl-1-cyclopropanecarboxylic acid [2-methyl-4-oxo-3-[(2E)-penta-2,4-dienyl]-1-cyclopent-2-enyl] ester

> <PUBCHEM_IUPAC_NAME_MARKUP>
[(1<I>S</I>)-2-methyl-4-oxo-3-[(2<I>E</I>)-penta-2,4-dienyl]cyclopent-2-en-1-yl] (1<I>R</I>)-2,2-dimethyl-3-(2-methylprop-1-enyl)cyclopropane-1-carboxylate;[2-methyl-4-oxo-3-[(2<I>E</I>)-penta-2,4-dienyl]cyclopent-2-en-1-yl] (1<I>R</I>)-3-[(<I>E</I>)-3-methoxy-2-methyl-3-oxoprop-1-enyl]-2,2-dimethylcyclopropane-1-carboxylate

> <PUBCHEM_IUPAC_NAME>
[(1S)-2-methyl-4-oxo-3-[(2E)-penta-2,4-dienyl]cyclopent-2-en-1-yl] (1R)-2,2-dimethyl-3-(2-methylprop-1-enyl)cyclopropane-1-carboxylate;[2-methyl-4-oxo-3-[(2E)-penta-2,4-dienyl]cyclopent-2-en-1-yl] (1R)-3-[(E)-3-methoxy-2-methyl-3-oxoprop-1-enyl]-2,2-dimethylcyclopropane-1-carboxylate

> <PUBCHEM_IUPAC_SYSTEMATIC_NAME>
[(1S)-2-methyl-4-oxidanylidene-3-[(2E)-penta-2,4-dienyl]cyclopent-2-en-1-yl] (1R)-2,2-dimethyl-3-(2-methylprop-1-enyl)cyclopropane-1-carboxylate;[2-methyl-4-oxidanylidene-3-[(2E)-penta-2,4-dienyl]cyclopent-2-en-1-yl] (1R)-3-[(E)-3-methoxy-2-methyl-3-oxidanylidene-prop-1-enyl]-2,2-dimethyl-cyclopropane-1-carboxylate

> <PUBCHEM_IUPAC_TRADITIONAL_NAME>
(1R)-2,2-dimethyl-3-(2-methylprop-1-enyl)cyclopropanecarboxylic acid [(1S)-4-keto-2-methyl-3-[(2E)-penta-2,4-dienyl]cyclopent-2-en-1-yl] ester;(1R)-3-[(E)-3-keto-3-methoxy-2-methyl-prop-1-enyl]-2,2-dimethyl-cyclopropanecarboxylic acid [4-keto-2-methyl-3-[(2E)-penta-2,4-dienyl]cyclopent-2-en-1-yl] ester

> <PUBCHEM_IUPAC_INCHI>
InChI=1S/C22H28O5.C21H28O3/c1-7-8-9-10-15-14(3)18(12-17(15)23)27-21(25)19-16(22(19,4)5)11-13(2)20(24)26-6;1-7-8-9-10-15-14(4)18(12-17(15)22)24-20(23)19-16(11-13(2)3)21(19,5)6/h7-9,11,16,18-19H,1,10,12H2,2-6H3;7-9,11,16,18-19H,1,10,12H2,2-6H3/b9-8+,13-11+;9-8+/t16?,18?,19-;16?,18-,19-/m00/s1

> <PUBCHEM_IUPAC_INCHIKEY>
VXSIXFKKSNGRRO-YWUDCVDHSA-N

> <PUBCHEM_EXACT_MASS>
700.39751874

> <PUBCHEM_MOLECULAR_FORMULA>
C43H56O8

> <PUBCHEM_MOLECULAR_WEIGHT>
700.9

> <PUBCHEM_OPENEYE_CAN_SMILES>
CC1=C(C(=O)CC1OC(=O)C2C(C2(C)C)C=C(C)C)CC=CC=C.CC1=C(C(=O)CC1OC(=O)C2C(C2(C)C)C=C(C)C(=O)OC)CC=CC=C

> <PUBCHEM_OPENEYE_ISO_SMILES>
CC1=C(C(=O)C[C@@H]1OC(=O)[C@@H]2C(C2(C)C)C=C(C)C)C/C=C/C=C.CC1=C(C(=O)CC1OC(=O)[C@@H]2C(C2(C)C)/C=C(\C)/C(=O)OC)C/C=C/C=C

> <PUBCHEM_CACTVS_TPSA>
113

> <PUBCHEM_MONOISOTOPIC_WEIGHT>
700.39751874

> <PUBCHEM_TOTAL_CHARGE>
0

> <PUBCHEM_HEAVY_ATOM_COUNT>
51

> <PUBCHEM_ATOM_DEF_STEREO_COUNT>
3

> <PUBCHEM_ATOM_UDEF_STEREO_COUNT>
3

> <PUBCHEM_BOND_DEF_STEREO_COUNT>
3

> <PUBCHEM_BOND_UDEF_STEREO_COUNT>
0

> <PUBCHEM_ISOTOPIC_ATOM_COUNT>
0

> <PUBCHEM_COMPONENT_COUNT>
2

> <PUBCHEM_CACTVS_TAUTO_COUNT>
25

> <PUBCHEM_COORDINATE_TYPE>
1
5
255

> <PUBCHEM_BONDANNOTATIONS>
25  1  6
11  19  3
12  21  5
13  20  3
14  22  5
26  2  3

$$$$
