6086269
  -OEChem-03282214302D

 38 39  0     1  0  0  0  0  0999 V2000
    2.0000   -0.4330    0.0000 Cl  0  0  0  0  0  0  0  0  0  0  0  0
    3.7320   -3.4330    0.0000 Cl  0  0  0  0  0  0  0  0  0  0  0  0
    5.4641    2.5670    0.0000 O   0  0  0  0  0  0  0  0  0  0  0  0
    5.4641    0.5670    0.0000 N   0  0  0  0  0  0  0  0  0  0  0  0
    6.3776    0.9737    0.0000 N   0  0  0  0  0  0  0  0  0  0  0  0
    6.5468   -0.6354    0.0000 N   0  0  0  0  0  0  0  0  0  0  0  0
    3.7320    2.5670    0.0000 C   0  0  0  0  0  0  0  0  0  0  0  0
    4.5981    2.0670    0.0000 C   0  0  3  0  0  0  0  0  0  0  0  0
    2.8660    3.0670    0.0000 C   0  0  0  0  0  0  0  0  0  0  0  0
    4.2320    3.4330    0.0000 C   0  0  0  0  0  0  0  0  0  0  0  0
    3.2320    1.7010    0.0000 C   0  0  0  0  0  0  0  0  0  0  0  0
    4.5981    1.0670    0.0000 C   0  0  0  0  0  0  0  0  0  0  0  0
    3.7320    0.5670    0.0000 C   0  0  0  0  0  0  0  0  0  0  0  0
    3.7320   -0.4330    0.0000 C   0  0  0  0  0  0  0  0  0  0  0  0
    5.5686   -0.4275    0.0000 C   0  0  0  0  0  0  0  0  0  0  0  0
    2.8660   -0.9330    0.0000 C   0  0  0  0  0  0  0  0  0  0  0  0
    4.5981   -0.9330    0.0000 C   0  0  0  0  0  0  0  0  0  0  0  0
    7.0468    0.2306    0.0000 C   0  0  0  0  0  0  0  0  0  0  0  0
    2.8660   -1.9330    0.0000 C   0  0  0  0  0  0  0  0  0  0  0  0
    4.5981   -1.9330    0.0000 C   0  0  0  0  0  0  0  0  0  0  0  0
    3.7320   -2.4330    0.0000 C   0  0  0  0  0  0  0  0  0  0  0  0
    4.5981    2.9170    0.0000 H   0  0  0  0  0  0  0  0  0  0  0  0
    3.1760    3.6039    0.0000 H   0  0  0  0  0  0  0  0  0  0  0  0
    2.3291    3.3770    0.0000 H   0  0  0  0  0  0  0  0  0  0  0  0
    2.5560    2.5300    0.0000 H   0  0  0  0  0  0  0  0  0  0  0  0
    4.7690    3.1230    0.0000 H   0  0  0  0  0  0  0  0  0  0  0  0
    4.5420    3.9700    0.0000 H   0  0  0  0  0  0  0  0  0  0  0  0
    3.6951    3.7430    0.0000 H   0  0  0  0  0  0  0  0  0  0  0  0
    2.6951    2.0110    0.0000 H   0  0  0  0  0  0  0  0  0  0  0  0
    2.9220    1.1640    0.0000 H   0  0  0  0  0  0  0  0  0  0  0  0
    3.7690    1.3910    0.0000 H   0  0  0  0  0  0  0  0  0  0  0  0
    3.1951    0.8770    0.0000 H   0  0  0  0  0  0  0  0  0  0  0  0
    5.4641    3.1870    0.0000 H   0  0  0  0  0  0  0  0  0  0  0  0
    5.1079   -0.8424    0.0000 H   0  0  0  0  0  0  0  0  0  0  0  0
    5.1350   -0.6230    0.0000 H   0  0  0  0  0  0  0  0  0  0  0  0
    7.6634    0.2954    0.0000 H   0  0  0  0  0  0  0  0  0  0  0  0
    2.3291   -2.2430    0.0000 H   0  0  0  0  0  0  0  0  0  0  0  0
    5.1350   -2.2430    0.0000 H   0  0  0  0  0  0  0  0  0  0  0  0
  1 16  1  0  0  0  0
  2 21  1  0  0  0  0
  3  8  1  0  0  0  0
  3 33  1  0  0  0  0
  4  5  1  0  0  0  0
  4 12  1  0  0  0  0
  4 15  1  0  0  0  0
  5 18  2  0  0  0  0
  6 15  2  0  0  0  0
  6 18  1  0  0  0  0
  7  8  1  0  0  0  0
  7  9  1  0  0  0  0
  7 10  1  0  0  0  0
  7 11  1  0  0  0  0
  8 12  1  0  0  0  0
  8 22  1  0  0  0  0
  9 23  1  0  0  0  0
  9 24  1  0  0  0  0
  9 25  1  0  0  0  0
 10 26  1  0  0  0  0
 10 27  1  0  0  0  0
 10 28  1  0  0  0  0
 11 29  1  0  0  0  0
 11 30  1  0  0  0  0
 11 31  1  0  0  0  0
 12 13  2  0  0  0  0
 13 14  1  0  0  0  0
 13 32  1  0  0  0  0
 14 16  2  0  0  0  0
 14 17  1  0  0  0  0
 15 34  1  0  0  0  0
 16 19  1  0  0  0  0
 17 20  2  0  0  0  0
 17 35  1  0  0  0  0
 18 36  1  0  0  0  0
 19 21  2  0  0  0  0
 19 37  1  0  0  0  0
 20 21  1  0  0  0  0
 20 38  1  0  0  0  0
M  END
> <PUBCHEM_COMPOUND_CID>
6086269

> <PUBCHEM_COMPOUND_CANONICALIZED>
1

> <PUBCHEM_CACTVS_COMPLEXITY>
384

> <PUBCHEM_CACTVS_HBOND_ACCEPTOR>
3

> <PUBCHEM_CACTVS_HBOND_DONOR>
1

> <PUBCHEM_CACTVS_ROTATABLE_BOND>
4

> <PUBCHEM_CACTVS_SUBSKEYS>
AAADceBzIAAGAAAAAAAAAAAAAAAAAWAAAAAwAAAAAAAAAAABwAAAHgIICAAADh6hmCY3EIYIEgCiAiRDZAASAAswh4AdyAAIAoiKPCKBmxCEcAAogAIYmAcAgAAPBAAAAACBAAAIAAAAAQIAAAAAAAAAAA==

> <PUBCHEM_IUPAC_OPENEYE_NAME>
(Z)-1-(2,4-dichlorophenyl)-4,4-dimethyl-2-(1,2,4-triazol-1-yl)pent-1-en-3-ol

> <PUBCHEM_IUPAC_CAS_NAME>
(Z)-1-(2,4-dichlorophenyl)-4,4-dimethyl-2-(1,2,4-triazol-1-yl)-1-penten-3-ol

> <PUBCHEM_IUPAC_NAME_MARKUP>
(<I>Z</I>)-1-(2,4-dichlorophenyl)-4,4-dimethyl-2-(1,2,4-triazol-1-yl)pent-1-en-3-ol

> <PUBCHEM_IUPAC_NAME>
(Z)-1-(2,4-dichlorophenyl)-4,4-dimethyl-2-(1,2,4-triazol-1-yl)pent-1-en-3-ol

> <PUBCHEM_IUPAC_SYSTEMATIC_NAME>
(Z)-1-(2,4-dichlorophenyl)-4,4-dimethyl-2-(1,2,4-triazol-1-yl)pent-1-en-3-ol

> <PUBCHEM_IUPAC_TRADITIONAL_NAME>
(Z)-1-(2,4-dichlorophenyl)-4,4-dimethyl-2-(1,2,4-triazol-1-yl)pent-1-en-3-ol

> <PUBCHEM_IUPAC_INCHI>
InChI=1S/C15H17Cl2N3O/c1-15(2,3)14(21)13(20-9-18-8-19-20)6-10-4-5-11(16)7-12(10)17/h4-9,14,21H,1-3H3/b13-6-

> <PUBCHEM_IUPAC_INCHIKEY>
FBOUIAKEJMZPQG-MLPAPPSSSA-N

> <PUBCHEM_XLOGP3_AA>
4.2

> <PUBCHEM_EXACT_MASS>
325.0748676

> <PUBCHEM_MOLECULAR_FORMULA>
C15H17Cl2N3O

> <PUBCHEM_MOLECULAR_WEIGHT>
326.2

> <PUBCHEM_OPENEYE_CAN_SMILES>
CC(C)(C)C(C(=CC1=C(C=C(C=C1)Cl)Cl)N2C=NC=N2)O

> <PUBCHEM_OPENEYE_ISO_SMILES>
CC(C)(C)C(/C(=C/C1=C(C=C(C=C1)Cl)Cl)/N2C=NC=N2)O

> <PUBCHEM_CACTVS_TPSA>
50.9

> <PUBCHEM_MONOISOTOPIC_WEIGHT>
325.0748676

> <PUBCHEM_TOTAL_CHARGE>
0

> <PUBCHEM_HEAVY_ATOM_COUNT>
21

> <PUBCHEM_ATOM_DEF_STEREO_COUNT>
0

> <PUBCHEM_ATOM_UDEF_STEREO_COUNT>
1

> <PUBCHEM_BOND_DEF_STEREO_COUNT>
1

> <PUBCHEM_BOND_UDEF_STEREO_COUNT>
0

> <PUBCHEM_ISOTOPIC_ATOM_COUNT>
0

> <PUBCHEM_COMPONENT_COUNT>
1

> <PUBCHEM_CACTVS_TAUTO_COUNT>
1

> <PUBCHEM_COORDINATE_TYPE>
1
5
255

> <PUBCHEM_BONDANNOTATIONS>
14  16  8
14  17  8
16  19  8
17  20  8
19  21  8
20  21  8
4  15  8
4  5  8
5  18  8
6  15  8
6  18  8
8  22  3

$$$$
