17110
  -OEChem-03302214402D

 53 51  0     0  0  0  0  0  0999 V2000
    7.4651    1.5000    0.0000 O   0  0  0  0  0  0  0  0  0  0  0  0
    6.5991    0.0000    0.0000 O   0  0  0  0  0  0  0  0  0  0  0  0
    2.2690    5.8469    0.0000 N   0  0  0  0  0  0  0  0  0  0  0  0
    0.5369    5.8469    0.0000 N   0  0  0  0  0  0  0  0  0  0  0  0
    1.4030    4.3469    0.0000 N   0  0  0  0  0  0  0  0  0  0  0  0
    7.4651    5.8469    0.0000 C   0  0  0  0  0  0  0  0  0  0  0  0
    8.3312    5.3469    0.0000 C   0  0  0  0  0  0  0  0  0  0  0  0
    6.5991    5.3469    0.0000 C   0  0  0  0  0  0  0  0  0  0  0  0
    9.1972    5.8469    0.0000 C   0  0  0  0  0  0  0  0  0  0  0  0
    5.7331    5.8469    0.0000 C   0  0  0  0  0  0  0  0  0  0  0  0
   10.0632    5.3469    0.0000 C   0  0  0  0  0  0  0  0  0  0  0  0
    4.8671    5.3469    0.0000 C   0  0  0  0  0  0  0  0  0  0  0  0
   10.9292    5.8469    0.0000 C   0  0  0  0  0  0  0  0  0  0  0  0
    4.0010    5.8469    0.0000 C   0  0  0  0  0  0  0  0  0  0  0  0
   11.7953    5.3469    0.0000 C   0  0  0  0  0  0  0  0  0  0  0  0
    3.1350    5.3469    0.0000 C   0  0  0  0  0  0  0  0  0  0  0  0
   12.6613    5.8469    0.0000 C   0  0  0  0  0  0  0  0  0  0  0  0
    1.4030    5.3469    0.0000 C   0  0  0  0  0  0  0  0  0  0  0  0
    5.7331    1.5000    0.0000 C   0  0  0  0  0  0  0  0  0  0  0  0
    6.5991    1.0000    0.0000 C   0  0  0  0  0  0  0  0  0  0  0  0
    7.8637    6.3219    0.0000 H   0  0  0  0  0  0  0  0  0  0  0  0
    7.0666    6.3219    0.0000 H   0  0  0  0  0  0  0  0  0  0  0  0
    7.9326    4.8720    0.0000 H   0  0  0  0  0  0  0  0  0  0  0  0
    8.7297    4.8720    0.0000 H   0  0  0  0  0  0  0  0  0  0  0  0
    6.2006    4.8720    0.0000 H   0  0  0  0  0  0  0  0  0  0  0  0
    6.9976    4.8720    0.0000 H   0  0  0  0  0  0  0  0  0  0  0  0
    9.5957    6.3219    0.0000 H   0  0  0  0  0  0  0  0  0  0  0  0
    8.7987    6.3219    0.0000 H   0  0  0  0  0  0  0  0  0  0  0  0
    6.1316    6.3219    0.0000 H   0  0  0  0  0  0  0  0  0  0  0  0
    5.3346    6.3219    0.0000 H   0  0  0  0  0  0  0  0  0  0  0  0
    9.6647    4.8720    0.0000 H   0  0  0  0  0  0  0  0  0  0  0  0
   10.4617    4.8720    0.0000 H   0  0  0  0  0  0  0  0  0  0  0  0
    4.4685    4.8720    0.0000 H   0  0  0  0  0  0  0  0  0  0  0  0
    5.2656    4.8720    0.0000 H   0  0  0  0  0  0  0  0  0  0  0  0
   11.3278    6.3219    0.0000 H   0  0  0  0  0  0  0  0  0  0  0  0
   10.5307    6.3219    0.0000 H   0  0  0  0  0  0  0  0  0  0  0  0
    4.3996    6.3219    0.0000 H   0  0  0  0  0  0  0  0  0  0  0  0
    3.6025    6.3219    0.0000 H   0  0  0  0  0  0  0  0  0  0  0  0
   11.3967    4.8720    0.0000 H   0  0  0  0  0  0  0  0  0  0  0  0
   12.1938    4.8720    0.0000 H   0  0  0  0  0  0  0  0  0  0  0  0
    2.7365    4.8720    0.0000 H   0  0  0  0  0  0  0  0  0  0  0  0
    3.5335    4.8720    0.0000 H   0  0  0  0  0  0  0  0  0  0  0  0
   12.9713    5.3100    0.0000 H   0  0  0  0  0  0  0  0  0  0  0  0
   13.1982    6.1569    0.0000 H   0  0  0  0  0  0  0  0  0  0  0  0
   12.3513    6.3839    0.0000 H   0  0  0  0  0  0  0  0  0  0  0  0
    0.0000    5.5369    0.0000 H   0  0  0  0  0  0  0  0  0  0  0  0
    0.5369    6.4669    0.0000 H   0  0  0  0  0  0  0  0  0  0  0  0
    1.9399    4.0369    0.0000 H   0  0  0  0  0  0  0  0  0  0  0  0
    0.8660    4.0369    0.0000 H   0  0  0  0  0  0  0  0  0  0  0  0
    6.0431    2.0369    0.0000 H   0  0  0  0  0  0  0  0  0  0  0  0
    5.1962    1.8100    0.0000 H   0  0  0  0  0  0  0  0  0  0  0  0
    5.4231    0.9631    0.0000 H   0  0  0  0  0  0  0  0  0  0  0  0
    8.0021    1.1900    0.0000 H   0  0  0  0  0  0  0  0  0  0  0  0
  1 20  1  0  0  0  0
  1 53  1  0  0  0  0
  2 20  2  0  0  0  0
  3 16  1  0  0  0  0
  3 18  2  0  0  0  0
  4 18  1  0  0  0  0
  4 46  1  0  0  0  0
  4 47  1  0  0  0  0
  5 18  1  0  0  0  0
  5 48  1  0  0  0  0
  5 49  1  0  0  0  0
  6  7  1  0  0  0  0
  6  8  1  0  0  0  0
  6 21  1  0  0  0  0
  6 22  1  0  0  0  0
  7  9  1  0  0  0  0
  7 23  1  0  0  0  0
  7 24  1  0  0  0  0
  8 10  1  0  0  0  0
  8 25  1  0  0  0  0
  8 26  1  0  0  0  0
  9 11  1  0  0  0  0
  9 27  1  0  0  0  0
  9 28  1  0  0  0  0
 10 12  1  0  0  0  0
 10 29  1  0  0  0  0
 10 30  1  0  0  0  0
 11 13  1  0  0  0  0
 11 31  1  0  0  0  0
 11 32  1  0  0  0  0
 12 14  1  0  0  0  0
 12 33  1  0  0  0  0
 12 34  1  0  0  0  0
 13 15  1  0  0  0  0
 13 35  1  0  0  0  0
 13 36  1  0  0  0  0
 14 16  1  0  0  0  0
 14 37  1  0  0  0  0
 14 38  1  0  0  0  0
 15 17  1  0  0  0  0
 15 39  1  0  0  0  0
 15 40  1  0  0  0  0
 16 41  1  0  0  0  0
 16 42  1  0  0  0  0
 17 43  1  0  0  0  0
 17 44  1  0  0  0  0
 17 45  1  0  0  0  0
 19 20  1  0  0  0  0
 19 50  1  0  0  0  0
 19 51  1  0  0  0  0
 19 52  1  0  0  0  0
M  END
> <PUBCHEM_COMPOUND_CID>
17110

> <PUBCHEM_COMPOUND_CANONICALIZED>
1

> <PUBCHEM_CACTVS_COMPLEXITY>
194

> <PUBCHEM_CACTVS_HBOND_ACCEPTOR>
3

> <PUBCHEM_CACTVS_HBOND_DONOR>
3

> <PUBCHEM_CACTVS_ROTATABLE_BOND>
11

> <PUBCHEM_CACTVS_SUBSKEYS>
AAADcfBzMAAAAAAAAAAAAAAAAAAAAAAAAAAAAAAAAAAAAAAAAAAAHgAQCAAACADBgAQDCAJAAgAoAACQLAAAAAEAAAAAAAAAAAAAAAIAgAAAAAAAAAAAAAEQgIAAAAAAAAAAAAAAAAAAAAAAAAAAAAAAAA==

> <PUBCHEM_IUPAC_OPENEYE_NAME>
acetic acid;2-dodecylguanidine

> <PUBCHEM_IUPAC_CAS_NAME>
acetic acid;2-dodecylguanidine

> <PUBCHEM_IUPAC_NAME_MARKUP>
acetic acid;2-dodecylguanidine

> <PUBCHEM_IUPAC_NAME>
acetic acid;2-dodecylguanidine

> <PUBCHEM_IUPAC_SYSTEMATIC_NAME>
2-dodecylguanidine;ethanoic acid

> <PUBCHEM_IUPAC_TRADITIONAL_NAME>
acetic acid;2-laurylguanidine

> <PUBCHEM_IUPAC_INCHI>
InChI=1S/C13H29N3.C2H4O2/c1-2-3-4-5-6-7-8-9-10-11-12-16-13(14)15;1-2(3)4/h2-12H2,1H3,(H4,14,15,16);1H3,(H,3,4)

> <PUBCHEM_IUPAC_INCHIKEY>
YIKWKLYQRFRGPM-UHFFFAOYSA-N

> <PUBCHEM_EXACT_MASS>
287.25727730

> <PUBCHEM_MOLECULAR_FORMULA>
C15H33N3O2

> <PUBCHEM_MOLECULAR_WEIGHT>
287.44

> <PUBCHEM_OPENEYE_CAN_SMILES>
CCCCCCCCCCCCN=C(N)N.CC(=O)O

> <PUBCHEM_OPENEYE_ISO_SMILES>
CCCCCCCCCCCCN=C(N)N.CC(=O)O

> <PUBCHEM_CACTVS_TPSA>
102

> <PUBCHEM_MONOISOTOPIC_WEIGHT>
287.25727730

> <PUBCHEM_TOTAL_CHARGE>
0

> <PUBCHEM_HEAVY_ATOM_COUNT>
20

> <PUBCHEM_ATOM_DEF_STEREO_COUNT>
0

> <PUBCHEM_ATOM_UDEF_STEREO_COUNT>
0

> <PUBCHEM_BOND_DEF_STEREO_COUNT>
0

> <PUBCHEM_BOND_UDEF_STEREO_COUNT>
0

> <PUBCHEM_ISOTOPIC_ATOM_COUNT>
0

> <PUBCHEM_COMPONENT_COUNT>
2

> <PUBCHEM_CACTVS_TAUTO_COUNT>
2

> <PUBCHEM_COORDINATE_TYPE>
1
5
255

$$$$
