15575641
  -OEChem-03282217402D

 35 33  0     0  0  0  0  0  0999 V2000
    4.3671    0.0000    0.0000 Cl  0  0  0  0  0  0  0  0  0  0  0  0
    3.1350    4.0000    0.0000 O   0  0  0  0  0  0  0  0  0  0  0  0
    4.0010    2.5000    0.0000 O   0  0  0  0  0  0  0  0  0  0  0  0
    8.3312    4.0000    0.0000 N   0  0  0  0  0  0  0  0  0  0  0  0
    4.8671    4.0000    0.0000 N   0  0  0  0  0  0  0  0  0  0  0  0
    6.5991    4.0000    0.0000 C   0  0  0  0  0  0  0  0  0  0  0  0
    7.4651    3.5000    0.0000 C   0  0  0  0  0  0  0  0  0  0  0  0
    5.7331    3.5000    0.0000 C   0  0  0  0  0  0  0  0  0  0  0  0
    9.1972    3.5000    0.0000 C   0  0  0  0  0  0  0  0  0  0  0  0
    8.3312    5.0000    0.0000 C   0  0  0  0  0  0  0  0  0  0  0  0
    2.2690    3.5000    0.0000 C   0  0  0  0  0  0  0  0  0  0  0  0
    4.0010    3.5000    0.0000 C   0  0  0  0  0  0  0  0  0  0  0  0
    1.4030    4.0000    0.0000 C   0  0  0  0  0  0  0  0  0  0  0  0
    0.5369    3.5000    0.0000 C   0  0  0  0  0  0  0  0  0  0  0  0
    6.9976    4.4750    0.0000 H   0  0  0  0  0  0  0  0  0  0  0  0
    6.2006    4.4750    0.0000 H   0  0  0  0  0  0  0  0  0  0  0  0
    7.0666    3.0250    0.0000 H   0  0  0  0  0  0  0  0  0  0  0  0
    7.8637    3.0250    0.0000 H   0  0  0  0  0  0  0  0  0  0  0  0
    5.3346    3.0250    0.0000 H   0  0  0  0  0  0  0  0  0  0  0  0
    6.1316    3.0250    0.0000 H   0  0  0  0  0  0  0  0  0  0  0  0
    4.8671    4.6200    0.0000 H   0  0  0  0  0  0  0  0  0  0  0  0
    8.8872    2.9631    0.0000 H   0  0  0  0  0  0  0  0  0  0  0  0
    9.7341    3.1900    0.0000 H   0  0  0  0  0  0  0  0  0  0  0  0
    9.5072    4.0369    0.0000 H   0  0  0  0  0  0  0  0  0  0  0  0
    8.9512    5.0000    0.0000 H   0  0  0  0  0  0  0  0  0  0  0  0
    8.3312    5.6200    0.0000 H   0  0  0  0  0  0  0  0  0  0  0  0
    7.7112    5.0000    0.0000 H   0  0  0  0  0  0  0  0  0  0  0  0
    1.8705    3.0250    0.0000 H   0  0  0  0  0  0  0  0  0  0  0  0
    2.6675    3.0250    0.0000 H   0  0  0  0  0  0  0  0  0  0  0  0
    1.8015    4.4750    0.0000 H   0  0  0  0  0  0  0  0  0  0  0  0
    1.0044    4.4750    0.0000 H   0  0  0  0  0  0  0  0  0  0  0  0
    0.2269    4.0369    0.0000 H   0  0  0  0  0  0  0  0  0  0  0  0
    0.0000    3.1900    0.0000 H   0  0  0  0  0  0  0  0  0  0  0  0
    0.8469    2.9631    0.0000 H   0  0  0  0  0  0  0  0  0  0  0  0
    5.3671    0.0000    0.0000 H   0  0  0  0  0  0  0  0  0  0  0  0
  1 35  1  0  0  0  0
  2 11  1  0  0  0  0
  2 12  1  0  0  0  0
  3 12  2  0  0  0  0
  4  7  1  0  0  0  0
  4  9  1  0  0  0  0
  4 10  1  0  0  0  0
  5  8  1  0  0  0  0
  5 12  1  0  0  0  0
  5 21  1  0  0  0  0
  6  7  1  0  0  0  0
  6  8  1  0  0  0  0
  6 15  1  0  0  0  0
  6 16  1  0  0  0  0
  7 17  1  0  0  0  0
  7 18  1  0  0  0  0
  8 19  1  0  0  0  0
  8 20  1  0  0  0  0
  9 22  1  0  0  0  0
  9 23  1  0  0  0  0
  9 24  1  0  0  0  0
 10 25  1  0  0  0  0
 10 26  1  0  0  0  0
 10 27  1  0  0  0  0
 11 13  1  0  0  0  0
 11 28  1  0  0  0  0
 11 29  1  0  0  0  0
 13 14  1  0  0  0  0
 13 30  1  0  0  0  0
 13 31  1  0  0  0  0
 14 32  1  0  0  0  0
 14 33  1  0  0  0  0
 14 34  1  0  0  0  0
M  END
> <PUBCHEM_COMPOUND_CID>
15575641

> <PUBCHEM_COMPOUND_CANONICALIZED>
1

> <PUBCHEM_CACTVS_COMPLEXITY>
138

> <PUBCHEM_CACTVS_HBOND_ACCEPTOR>
3

> <PUBCHEM_CACTVS_HBOND_DONOR>
2

> <PUBCHEM_CACTVS_ROTATABLE_BOND>
7

> <PUBCHEM_CACTVS_SUBSKEYS>
AAADceBzMAAEAAAAAAAAAAAAAAAAAAAAAAAAAAAAAAAAAAAAAAAAHgAQAAAACADhgAYCCAPABAAIAAAAGAAAAAAAAAAAAIAIAAEAAAAAQAAMAAAAFgAAAAAAAAAAAAAAAAAAAAAAAAAAAAAAAAAAAAAAAA==

> <PUBCHEM_IUPAC_OPENEYE_NAME>
propyl N-[3-(dimethylamino)propyl]carbamate;hydrochloride

> <PUBCHEM_IUPAC_CAS_NAME>
N-[3-(dimethylamino)propyl]carbamic acid propyl ester;hydrochloride

> <PUBCHEM_IUPAC_NAME_MARKUP>
propyl <I>N</I>-[3-(dimethylamino)propyl]carbamate;hydrochloride

> <PUBCHEM_IUPAC_NAME>
propyl N-[3-(dimethylamino)propyl]carbamate;hydrochloride

> <PUBCHEM_IUPAC_SYSTEMATIC_NAME>
propyl N-[3-(dimethylamino)propyl]carbamate;hydrochloride

> <PUBCHEM_IUPAC_TRADITIONAL_NAME>
N-[3-(dimethylamino)propyl]carbamic acid propyl ester;hydrochloride

> <PUBCHEM_IUPAC_INCHI>
InChI=1S/C9H20N2O2.ClH/c1-4-8-13-9(12)10-6-5-7-11(2)3;/h4-8H2,1-3H3,(H,10,12);1H

> <PUBCHEM_IUPAC_INCHIKEY>
MKIMSXGUTQTKJU-UHFFFAOYSA-N

> <PUBCHEM_EXACT_MASS>
224.1291556

> <PUBCHEM_MOLECULAR_FORMULA>
C9H21ClN2O2

> <PUBCHEM_MOLECULAR_WEIGHT>
224.73

> <PUBCHEM_OPENEYE_CAN_SMILES>
CCCOC(=O)NCCCN(C)C.Cl

> <PUBCHEM_OPENEYE_ISO_SMILES>
CCCOC(=O)NCCCN(C)C.Cl

> <PUBCHEM_CACTVS_TPSA>
41.6

> <PUBCHEM_MONOISOTOPIC_WEIGHT>
224.1291556

> <PUBCHEM_TOTAL_CHARGE>
0

> <PUBCHEM_HEAVY_ATOM_COUNT>
14

> <PUBCHEM_ATOM_DEF_STEREO_COUNT>
0

> <PUBCHEM_ATOM_UDEF_STEREO_COUNT>
0

> <PUBCHEM_BOND_DEF_STEREO_COUNT>
0

> <PUBCHEM_BOND_UDEF_STEREO_COUNT>
0

> <PUBCHEM_ISOTOPIC_ATOM_COUNT>
0

> <PUBCHEM_COMPONENT_COUNT>
2

> <PUBCHEM_CACTVS_TAUTO_COUNT>
2

> <PUBCHEM_COORDINATE_TYPE>
1
5
255

$$$$
