30773
  -OEChem-03282214222D

 29 29  0     0  0  0  0  0  0999 V2000
    4.7320   -3.0000    0.0000 Cl  0  0  0  0  0  0  0  0  0  0  0  0
    3.0000    0.0000    0.0000 N   0  0  0  0  0  0  0  0  0  0  0  0
    6.4641   -0.0000    0.0000 N   0  0  0  0  0  0  0  0  0  0  0  0
    4.7320   -0.0000    0.0000 N   0  0  0  0  0  0  0  0  0  0  0  0
    3.8660   -1.5000    0.0000 N   0  0  0  0  0  0  0  0  0  0  0  0
    5.5981   -1.5000    0.0000 N   0  0  0  0  0  0  0  0  0  0  0  0
    3.0000    3.0000    0.0000 N   0  0  0  0  0  0  0  0  0  0  0  0
    3.0000    1.0000    0.0000 C   0  0  0  0  0  0  0  0  0  0  0  0
    2.0000    1.0000    0.0000 C   0  0  0  0  0  0  0  0  0  0  0  0
    4.0000    1.0000    0.0000 C   0  0  0  0  0  0  0  0  0  0  0  0
    3.8660   -0.5000    0.0000 C   0  0  0  0  0  0  0  0  0  0  0  0
    3.0000    2.0000    0.0000 C   0  0  0  0  0  0  0  0  0  0  0  0
    5.5981   -0.5000    0.0000 C   0  0  0  0  0  0  0  0  0  0  0  0
    7.3301   -0.5000    0.0000 C   0  0  0  0  0  0  0  0  0  0  0  0
    8.1962   -0.0000    0.0000 C   0  0  0  0  0  0  0  0  0  0  0  0
    4.7320   -2.0000    0.0000 C   0  0  0  0  0  0  0  0  0  0  0  0
    2.4631   -0.3100    0.0000 H   0  0  0  0  0  0  0  0  0  0  0  0
    2.0000    1.6200    0.0000 H   0  0  0  0  0  0  0  0  0  0  0  0
    1.3800    1.0000    0.0000 H   0  0  0  0  0  0  0  0  0  0  0  0
    2.0000    0.3800    0.0000 H   0  0  0  0  0  0  0  0  0  0  0  0
    4.0000    0.3800    0.0000 H   0  0  0  0  0  0  0  0  0  0  0  0
    4.6200    1.0000    0.0000 H   0  0  0  0  0  0  0  0  0  0  0  0
    4.0000    1.6200    0.0000 H   0  0  0  0  0  0  0  0  0  0  0  0
    6.9316   -0.9749    0.0000 H   0  0  0  0  0  0  0  0  0  0  0  0
    7.7287   -0.9749    0.0000 H   0  0  0  0  0  0  0  0  0  0  0  0
    6.4641    0.6200    0.0000 H   0  0  0  0  0  0  0  0  0  0  0  0
    8.5062   -0.5369    0.0000 H   0  0  0  0  0  0  0  0  0  0  0  0
    8.7331    0.3100    0.0000 H   0  0  0  0  0  0  0  0  0  0  0  0
    7.8862    0.5369    0.0000 H   0  0  0  0  0  0  0  0  0  0  0  0
  1 16  1  0  0  0  0
  2  8  1  0  0  0  0
  2 11  1  0  0  0  0
  2 17  1  0  0  0  0
  3 13  1  0  0  0  0
  3 14  1  0  0  0  0
  3 26  1  0  0  0  0
  4 11  1  0  0  0  0
  4 13  2  0  0  0  0
  5 11  2  0  0  0  0
  5 16  1  0  0  0  0
  6 13  1  0  0  0  0
  6 16  2  0  0  0  0
  7 12  3  0  0  0  0
  8  9  1  0  0  0  0
  8 10  1  0  0  0  0
  8 12  1  0  0  0  0
  9 18  1  0  0  0  0
  9 19  1  0  0  0  0
  9 20  1  0  0  0  0
 10 21  1  0  0  0  0
 10 22  1  0  0  0  0
 10 23  1  0  0  0  0
 14 15  1  0  0  0  0
 14 24  1  0  0  0  0
 14 25  1  0  0  0  0
 15 27  1  0  0  0  0
 15 28  1  0  0  0  0
 15 29  1  0  0  0  0
M  END
> <PUBCHEM_COMPOUND_CID>
30773

> <PUBCHEM_COMPOUND_CANONICALIZED>
1

> <PUBCHEM_CACTVS_COMPLEXITY>
272

> <PUBCHEM_CACTVS_HBOND_ACCEPTOR>
6

> <PUBCHEM_CACTVS_HBOND_DONOR>
2

> <PUBCHEM_CACTVS_ROTATABLE_BOND>
4

> <PUBCHEM_CACTVS_SUBSKEYS>
AAADccBzgAAEAAAAAAAAAAAAAAAAAAAAAAAsAAAAAAAAAAABgAAAHAIQAAAADIjBAAQDEAbIEAAwBAAAJAAAAAkAAIABAIAIAACAiAAACAAAAAAIEAIAAAAAAAAAAAAAAAAAAAAAAAAAAAAAAAAAAAAAAA==

> <PUBCHEM_IUPAC_OPENEYE_NAME>
2-[[4-chloro-6-(ethylamino)-1,3,5-triazin-2-yl]amino]-2-methyl-propanenitrile

> <PUBCHEM_IUPAC_CAS_NAME>
2-[[4-chloro-6-(ethylamino)-1,3,5-triazin-2-yl]amino]-2-methylpropanenitrile

> <PUBCHEM_IUPAC_NAME_MARKUP>
2-[[4-chloro-6-(ethylamino)-1,3,5-triazin-2-yl]amino]-2-methylpropanenitrile

> <PUBCHEM_IUPAC_NAME>
2-[[4-chloro-6-(ethylamino)-1,3,5-triazin-2-yl]amino]-2-methylpropanenitrile

> <PUBCHEM_IUPAC_SYSTEMATIC_NAME>
2-[[4-chloranyl-6-(ethylamino)-1,3,5-triazin-2-yl]amino]-2-methyl-propanenitrile

> <PUBCHEM_IUPAC_TRADITIONAL_NAME>
2-[[4-chloro-6-(ethylamino)-s-triazin-2-yl]amino]-2-methyl-propionitrile

> <PUBCHEM_IUPAC_INCHI>
InChI=1S/C9H13ClN6/c1-4-12-7-13-6(10)14-8(15-7)16-9(2,3)5-11/h4H2,1-3H3,(H2,12,13,14,15,16)

> <PUBCHEM_IUPAC_INCHIKEY>
MZZBPDKVEFVLFF-UHFFFAOYSA-N

> <PUBCHEM_XLOGP3>
2.2

> <PUBCHEM_EXACT_MASS>
240.0890221

> <PUBCHEM_MOLECULAR_FORMULA>
C9H13ClN6

> <PUBCHEM_MOLECULAR_WEIGHT>
240.69

> <PUBCHEM_OPENEYE_CAN_SMILES>
CCNC1=NC(=NC(=N1)Cl)NC(C)(C)C#N

> <PUBCHEM_OPENEYE_ISO_SMILES>
CCNC1=NC(=NC(=N1)Cl)NC(C)(C)C#N

> <PUBCHEM_CACTVS_TPSA>
86.5

> <PUBCHEM_MONOISOTOPIC_WEIGHT>
240.0890221

> <PUBCHEM_TOTAL_CHARGE>
0

> <PUBCHEM_HEAVY_ATOM_COUNT>
16

> <PUBCHEM_ATOM_DEF_STEREO_COUNT>
0

> <PUBCHEM_ATOM_UDEF_STEREO_COUNT>
0

> <PUBCHEM_BOND_DEF_STEREO_COUNT>
0

> <PUBCHEM_BOND_UDEF_STEREO_COUNT>
0

> <PUBCHEM_ISOTOPIC_ATOM_COUNT>
0

> <PUBCHEM_COMPONENT_COUNT>
1

> <PUBCHEM_CACTVS_TAUTO_COUNT>
9

> <PUBCHEM_COORDINATE_TYPE>
1
5
255

> <PUBCHEM_BONDANNOTATIONS>
4  11  8
4  13  8
5  11  8
5  16  8
6  13  8
6  16  8

$$$$
