46220487
  -OEChem-03282216092D

 52 54  0     0  0  0  0  0  0999 V2000
    8.9282    0.7500    0.0000 Cl  0  0  0  0  0  0  0  0  0  0  0  0
    2.0000    3.7500    0.0000 O   0  0  0  0  0  0  0  0  0  0  0  0
    5.4641    2.7500    0.0000 O   0  0  0  0  0  0  0  0  0  0  0  0
    3.7320    2.7500    0.0000 N   0  0  0  0  0  0  0  0  0  0  0  0
    8.0622    2.2500    0.0000 N   0  0  0  0  0  0  0  0  0  0  0  0
    5.4641   -3.2500    0.0000 C   0  0  0  0  0  0  0  0  0  0  0  0
    5.4641   -2.2500    0.0000 C   0  0  0  0  0  0  0  0  0  0  0  0
    5.4641   -4.2500    0.0000 C   0  0  0  0  0  0  0  0  0  0  0  0
    4.4641   -3.2500    0.0000 C   0  0  0  0  0  0  0  0  0  0  0  0
    6.4641   -3.2500    0.0000 C   0  0  0  0  0  0  0  0  0  0  0  0
    3.7320    3.7500    0.0000 C   0  0  0  0  0  0  0  0  0  0  0  0
    2.8660    2.2500    0.0000 C   0  0  0  0  0  0  0  0  0  0  0  0
    4.5981   -1.7500    0.0000 C   0  0  0  0  0  0  0  0  0  0  0  0
    6.3301   -1.7500    0.0000 C   0  0  0  0  0  0  0  0  0  0  0  0
    2.8660    4.2500    0.0000 C   0  0  0  0  0  0  0  0  0  0  0  0
    2.0000    2.7500    0.0000 C   0  0  0  0  0  0  0  0  0  0  0  0
    5.4641   -0.2500    0.0000 C   0  0  0  0  0  0  0  0  0  0  0  0
    5.4641    0.7500    0.0000 C   0  0  0  0  0  0  0  0  0  0  0  0
    4.5981   -0.7500    0.0000 C   0  0  0  0  0  0  0  0  0  0  0  0
    6.3301   -0.7500    0.0000 C   0  0  0  0  0  0  0  0  0  0  0  0
    4.5981    2.2500    0.0000 C   0  0  0  0  0  0  0  0  0  0  0  0
    4.5981    1.2500    0.0000 C   0  0  0  0  0  0  0  0  0  0  0  0
    6.3301    1.2500    0.0000 C   0  0  0  0  0  0  0  0  0  0  0  0
    7.1962    0.7500    0.0000 C   0  0  0  0  0  0  0  0  0  0  0  0
    6.3301    2.2500    0.0000 C   0  0  0  0  0  0  0  0  0  0  0  0
    8.0622    1.2500    0.0000 C   0  0  0  0  0  0  0  0  0  0  0  0
    7.1962    2.7500    0.0000 C   0  0  0  0  0  0  0  0  0  0  0  0
    4.8441   -4.2500    0.0000 H   0  0  0  0  0  0  0  0  0  0  0  0
    5.4641   -4.8700    0.0000 H   0  0  0  0  0  0  0  0  0  0  0  0
    6.0841   -4.2500    0.0000 H   0  0  0  0  0  0  0  0  0  0  0  0
    4.4641   -2.6300    0.0000 H   0  0  0  0  0  0  0  0  0  0  0  0
    3.8441   -3.2500    0.0000 H   0  0  0  0  0  0  0  0  0  0  0  0
    4.4641   -3.8700    0.0000 H   0  0  0  0  0  0  0  0  0  0  0  0
    6.4641   -3.8700    0.0000 H   0  0  0  0  0  0  0  0  0  0  0  0
    7.0841   -3.2500    0.0000 H   0  0  0  0  0  0  0  0  0  0  0  0
    6.4641   -2.6300    0.0000 H   0  0  0  0  0  0  0  0  0  0  0  0
    4.3426    3.6423    0.0000 H   0  0  0  0  0  0  0  0  0  0  0  0
    3.9441    4.3326    0.0000 H   0  0  0  0  0  0  0  0  0  0  0  0
    2.4675    1.7750    0.0000 H   0  0  0  0  0  0  0  0  0  0  0  0
    3.2646    1.7750    0.0000 H   0  0  0  0  0  0  0  0  0  0  0  0
    4.0611   -2.0600    0.0000 H   0  0  0  0  0  0  0  0  0  0  0  0
    6.8671   -2.0600    0.0000 H   0  0  0  0  0  0  0  0  0  0  0  0
    3.2646    4.7250    0.0000 H   0  0  0  0  0  0  0  0  0  0  0  0
    2.4675    4.7250    0.0000 H   0  0  0  0  0  0  0  0  0  0  0  0
    1.3894    2.8577    0.0000 H   0  0  0  0  0  0  0  0  0  0  0  0
    1.7880    2.1674    0.0000 H   0  0  0  0  0  0  0  0  0  0  0  0
    4.0611   -0.4400    0.0000 H   0  0  0  0  0  0  0  0  0  0  0  0
    6.8671   -0.4400    0.0000 H   0  0  0  0  0  0  0  0  0  0  0  0
    4.0611    0.9400    0.0000 H   0  0  0  0  0  0  0  0  0  0  0  0
    7.1962    0.1300    0.0000 H   0  0  0  0  0  0  0  0  0  0  0  0
    5.7932    2.5600    0.0000 H   0  0  0  0  0  0  0  0  0  0  0  0
    7.1962    3.3700    0.0000 H   0  0  0  0  0  0  0  0  0  0  0  0
  1 26  1  0  0  0  0
  2 15  1  0  0  0  0
  2 16  1  0  0  0  0
  3 21  2  0  0  0  0
  4 11  1  0  0  0  0
  4 12  1  0  0  0  0
  4 21  1  0  0  0  0
  5 26  2  0  0  0  0
  5 27  1  0  0  0  0
  6  7  1  0  0  0  0
  6  8  1  0  0  0  0
  6  9  1  0  0  0  0
  6 10  1  0  0  0  0
  7 13  2  0  0  0  0
  7 14  1  0  0  0  0
  8 28  1  0  0  0  0
  8 29  1  0  0  0  0
  8 30  1  0  0  0  0
  9 31  1  0  0  0  0
  9 32  1  0  0  0  0
  9 33  1  0  0  0  0
 10 34  1  0  0  0  0
 10 35  1  0  0  0  0
 10 36  1  0  0  0  0
 11 15  1  0  0  0  0
 11 37  1  0  0  0  0
 11 38  1  0  0  0  0
 12 16  1  0  0  0  0
 12 39  1  0  0  0  0
 12 40  1  0  0  0  0
 13 19  1  0  0  0  0
 13 41  1  0  0  0  0
 14 20  2  0  0  0  0
 14 42  1  0  0  0  0
 15 43  1  0  0  0  0
 15 44  1  0  0  0  0
 16 45  1  0  0  0  0
 16 46  1  0  0  0  0
 17 18  1  0  0  0  0
 17 19  2  0  0  0  0
 17 20  1  0  0  0  0
 18 22  2  0  0  0  0
 18 23  1  0  0  0  0
 19 47  1  0  0  0  0
 20 48  1  0  0  0  0
 21 22  1  0  0  0  0
 22 49  1  0  0  0  0
 23 24  2  0  0  0  0
 23 25  1  0  0  0  0
 24 26  1  0  0  0  0
 24 50  1  0  0  0  0
 25 27  2  0  0  0  0
 25 51  1  0  0  0  0
 27 52  1  0  0  0  0
M  END
> <PUBCHEM_COMPOUND_CID>
46220487

> <PUBCHEM_COMPOUND_CANONICALIZED>
1

> <PUBCHEM_CACTVS_COMPLEXITY>
529

> <PUBCHEM_CACTVS_HBOND_ACCEPTOR>
3

> <PUBCHEM_CACTVS_HBOND_DONOR>
0

> <PUBCHEM_CACTVS_ROTATABLE_BOND>
4

> <PUBCHEM_CACTVS_SUBSKEYS>
AAADceB7MAAEAAAAAAAAAAAAAAAAAAAAAAA8WIAAAAAAAAABwAAAHgIAAAAADgLhmiY+gJMIFACoAjF3VACCgCAxByAI2CA4ZtgKIGLBk5GHIAhghgDYyQcQgMAPwAAAAAAAAACAAAAAAAAAAAAAAAAAAA==

> <PUBCHEM_IUPAC_OPENEYE_NAME>
(Z)-3-(4-tert-butylphenyl)-3-(2-chloro-4-pyridyl)-1-morpholino-prop-2-en-1-one

> <PUBCHEM_IUPAC_CAS_NAME>
(Z)-3-(4-tert-butylphenyl)-3-(2-chloro-4-pyridinyl)-1-(4-morpholinyl)-2-propen-1-one

> <PUBCHEM_IUPAC_NAME_MARKUP>
(<I>Z</I>)-3-(4-<I>tert</I>-butylphenyl)-3-(2-chloropyridin-4-yl)-1-morpholin-4-ylprop-2-en-1-one

> <PUBCHEM_IUPAC_NAME>
(Z)-3-(4-tert-butylphenyl)-3-(2-chloropyridin-4-yl)-1-morpholin-4-ylprop-2-en-1-one

> <PUBCHEM_IUPAC_SYSTEMATIC_NAME>
(Z)-3-(4-tert-butylphenyl)-3-(2-chloranylpyridin-4-yl)-1-morpholin-4-yl-prop-2-en-1-one

> <PUBCHEM_IUPAC_TRADITIONAL_NAME>
(Z)-3-(4-tert-butylphenyl)-3-(2-chloro-4-pyridyl)-1-morpholino-prop-2-en-1-one

> <PUBCHEM_IUPAC_INCHI>
InChI=1S/C22H25ClN2O2/c1-22(2,3)18-6-4-16(5-7-18)19(17-8-9-24-20(23)14-17)15-21(26)25-10-12-27-13-11-25/h4-9,14-15H,10-13H2,1-3H3/b19-15-

> <PUBCHEM_IUPAC_INCHIKEY>
QEUOHPLVFSQWME-CYVLTUHYSA-N

> <PUBCHEM_XLOGP3_AA>
4.9

> <PUBCHEM_EXACT_MASS>
384.1604557

> <PUBCHEM_MOLECULAR_FORMULA>
C22H25ClN2O2

> <PUBCHEM_MOLECULAR_WEIGHT>
384.9

> <PUBCHEM_OPENEYE_CAN_SMILES>
CC(C)(C)C1=CC=C(C=C1)C(=CC(=O)N2CCOCC2)C3=CC(=NC=C3)Cl

> <PUBCHEM_OPENEYE_ISO_SMILES>
CC(C)(C)C1=CC=C(C=C1)/C(=C/C(=O)N2CCOCC2)/C3=CC(=NC=C3)Cl

> <PUBCHEM_CACTVS_TPSA>
42.4

> <PUBCHEM_MONOISOTOPIC_WEIGHT>
384.1604557

> <PUBCHEM_TOTAL_CHARGE>
0

> <PUBCHEM_HEAVY_ATOM_COUNT>
27

> <PUBCHEM_ATOM_DEF_STEREO_COUNT>
0

> <PUBCHEM_ATOM_UDEF_STEREO_COUNT>
0

> <PUBCHEM_BOND_DEF_STEREO_COUNT>
1

> <PUBCHEM_BOND_UDEF_STEREO_COUNT>
0

> <PUBCHEM_ISOTOPIC_ATOM_COUNT>
0

> <PUBCHEM_COMPONENT_COUNT>
1

> <PUBCHEM_CACTVS_TAUTO_COUNT>
-1

> <PUBCHEM_COORDINATE_TYPE>
1
5
255

> <PUBCHEM_BONDANNOTATIONS>
13  19  8
14  20  8
17  19  8
17  20  8
23  24  8
23  25  8
24  26  8
25  27  8
5  26  8
5  27  8
7  13  8
7  14  8

$$$$
