10522
  -OEChem-03282214182D

 35 36  0     0  0  0  0  0  0999 V2000
    3.3100    4.0000    0.0000 Cl  0  0  0  0  0  0  0  0  0  0  0  0
    3.3100   -4.0000    0.0000 Cl  0  0  0  0  0  0  0  0  0  0  0  0
    2.3100    0.0000    0.0000 O   0  0  0  0  0  0  0  0  0  0  0  0
    4.8100    0.8660    0.0000 O   0  0  0  0  0  0  0  0  0  0  0  0
    4.8100   -0.8660    0.0000 O   0  0  0  0  0  0  0  0  0  0  0  0
    3.3100    0.0000    0.0000 C   0  0  0  0  0  0  0  0  0  0  0  0
    3.3100    1.0000    0.0000 C   0  0  0  0  0  0  0  0  0  0  0  0
    3.3100   -1.0000    0.0000 C   0  0  0  0  0  0  0  0  0  0  0  0
    4.3100    0.0000    0.0000 C   0  0  0  0  0  0  0  0  0  0  0  0
    4.1760    1.5000    0.0000 C   0  0  0  0  0  0  0  0  0  0  0  0
    2.4440   -1.5000    0.0000 C   0  0  0  0  0  0  0  0  0  0  0  0
    2.4440    1.5000    0.0000 C   0  0  0  0  0  0  0  0  0  0  0  0
    4.1760   -1.5000    0.0000 C   0  0  0  0  0  0  0  0  0  0  0  0
    4.1760    2.5000    0.0000 C   0  0  0  0  0  0  0  0  0  0  0  0
    2.4440   -2.5000    0.0000 C   0  0  0  0  0  0  0  0  0  0  0  0
    2.4440    2.5000    0.0000 C   0  0  0  0  0  0  0  0  0  0  0  0
    4.1760   -2.5000    0.0000 C   0  0  0  0  0  0  0  0  0  0  0  0
    3.3100    3.0000    0.0000 C   0  0  0  0  0  0  0  0  0  0  0  0
    3.3100   -3.0000    0.0000 C   0  0  0  0  0  0  0  0  0  0  0  0
    5.8100    0.8660    0.0000 C   0  0  0  0  0  0  0  0  0  0  0  0
    6.3100    1.7320    0.0000 C   0  0  0  0  0  0  0  0  0  0  0  0
    4.7130    1.1900    0.0000 H   0  0  0  0  0  0  0  0  0  0  0  0
    1.9070   -1.1900    0.0000 H   0  0  0  0  0  0  0  0  0  0  0  0
    1.9070    1.1900    0.0000 H   0  0  0  0  0  0  0  0  0  0  0  0
    4.7130   -1.1900    0.0000 H   0  0  0  0  0  0  0  0  0  0  0  0
    2.0000    0.5369    0.0000 H   0  0  0  0  0  0  0  0  0  0  0  0
    4.7130    2.8100    0.0000 H   0  0  0  0  0  0  0  0  0  0  0  0
    1.9070   -2.8100    0.0000 H   0  0  0  0  0  0  0  0  0  0  0  0
    1.9070    2.8100    0.0000 H   0  0  0  0  0  0  0  0  0  0  0  0
    4.7130   -2.8100    0.0000 H   0  0  0  0  0  0  0  0  0  0  0  0
    5.7023    0.2554    0.0000 H   0  0  0  0  0  0  0  0  0  0  0  0
    6.3926    0.6540    0.0000 H   0  0  0  0  0  0  0  0  0  0  0  0
    6.8469    1.4220    0.0000 H   0  0  0  0  0  0  0  0  0  0  0  0
    6.6200    2.2690    0.0000 H   0  0  0  0  0  0  0  0  0  0  0  0
    5.7731    2.0420    0.0000 H   0  0  0  0  0  0  0  0  0  0  0  0
  1 18  1  0  0  0  0
  2 19  1  0  0  0  0
  3  6  1  0  0  0  0
  3 26  1  0  0  0  0
  4  9  1  0  0  0  0
  4 20  1  0  0  0  0
  5  9  2  0  0  0  0
  6  7  1  0  0  0  0
  6  8  1  0  0  0  0
  6  9  1  0  0  0  0
  7 10  2  0  0  0  0
  7 12  1  0  0  0  0
  8 11  2  0  0  0  0
  8 13  1  0  0  0  0
 10 14  1  0  0  0  0
 10 22  1  0  0  0  0
 11 15  1  0  0  0  0
 11 23  1  0  0  0  0
 12 16  2  0  0  0  0
 12 24  1  0  0  0  0
 13 17  2  0  0  0  0
 13 25  1  0  0  0  0
 14 18  2  0  0  0  0
 14 27  1  0  0  0  0
 15 19  2  0  0  0  0
 15 28  1  0  0  0  0
 16 18  1  0  0  0  0
 16 29  1  0  0  0  0
 17 19  1  0  0  0  0
 17 30  1  0  0  0  0
 20 21  1  0  0  0  0
 20 31  1  0  0  0  0
 20 32  1  0  0  0  0
 21 33  1  0  0  0  0
 21 34  1  0  0  0  0
 21 35  1  0  0  0  0
M  END
> <PUBCHEM_COMPOUND_CID>
10522

> <PUBCHEM_COMPOUND_CANONICALIZED>
1

> <PUBCHEM_CACTVS_COMPLEXITY>
323

> <PUBCHEM_CACTVS_HBOND_ACCEPTOR>
3

> <PUBCHEM_CACTVS_HBOND_DONOR>
1

> <PUBCHEM_CACTVS_ROTATABLE_BOND>
5

> <PUBCHEM_CACTVS_SUBSKEYS>
AAADccB4MAAGAAAAAAAAAAAAAAAAAAAAAAAwYAAAAAAAAAABQAAAGgIACAAADEagmCIyCIAABgCIAiDSCAICAAAgBQAIiAFACogJJjKBFxCCcAAkwAELmAeIyOCOhAAAAAAAAAAIAAAAAAAAAAAAAAAAAA==

> <PUBCHEM_IUPAC_OPENEYE_NAME>
ethyl 2,2-bis(4-chlorophenyl)-2-hydroxy-acetate

> <PUBCHEM_IUPAC_CAS_NAME>
2,2-bis(4-chlorophenyl)-2-hydroxyacetic acid ethyl ester

> <PUBCHEM_IUPAC_NAME_MARKUP>
ethyl 2,2-bis(4-chlorophenyl)-2-hydroxyacetate

> <PUBCHEM_IUPAC_NAME>
ethyl 2,2-bis(4-chlorophenyl)-2-hydroxyacetate

> <PUBCHEM_IUPAC_SYSTEMATIC_NAME>
ethyl 2,2-bis(4-chlorophenyl)-2-oxidanyl-ethanoate

> <PUBCHEM_IUPAC_TRADITIONAL_NAME>
2,2-bis(4-chlorophenyl)-2-hydroxy-acetic acid ethyl ester

> <PUBCHEM_IUPAC_INCHI>
InChI=1S/C16H14Cl2O3/c1-2-21-15(19)16(20,11-3-7-13(17)8-4-11)12-5-9-14(18)10-6-12/h3-10,20H,2H2,1H3

> <PUBCHEM_IUPAC_INCHIKEY>
RAPBNVDSDCTNRC-UHFFFAOYSA-N

> <PUBCHEM_XLOGP3_AA>
4.3

> <PUBCHEM_EXACT_MASS>
324.0319997

> <PUBCHEM_MOLECULAR_FORMULA>
C16H14Cl2O3

> <PUBCHEM_MOLECULAR_WEIGHT>
325.2

> <PUBCHEM_OPENEYE_CAN_SMILES>
CCOC(=O)C(C1=CC=C(C=C1)Cl)(C2=CC=C(C=C2)Cl)O

> <PUBCHEM_OPENEYE_ISO_SMILES>
CCOC(=O)C(C1=CC=C(C=C1)Cl)(C2=CC=C(C=C2)Cl)O

> <PUBCHEM_CACTVS_TPSA>
46.5

> <PUBCHEM_MONOISOTOPIC_WEIGHT>
324.0319997

> <PUBCHEM_TOTAL_CHARGE>
0

> <PUBCHEM_HEAVY_ATOM_COUNT>
21

> <PUBCHEM_ATOM_DEF_STEREO_COUNT>
0

> <PUBCHEM_ATOM_UDEF_STEREO_COUNT>
0

> <PUBCHEM_BOND_DEF_STEREO_COUNT>
0

> <PUBCHEM_BOND_UDEF_STEREO_COUNT>
0

> <PUBCHEM_ISOTOPIC_ATOM_COUNT>
0

> <PUBCHEM_COMPONENT_COUNT>
1

> <PUBCHEM_CACTVS_TAUTO_COUNT>
1

> <PUBCHEM_COORDINATE_TYPE>
1
5
255

> <PUBCHEM_BONDANNOTATIONS>
10  14  8
11  15  8
12  16  8
13  17  8
14  18  8
15  19  8
16  18  8
17  19  8
7  10  8
7  12  8
8  11  8
8  13  8

$$$$
