3224
  -OEChem-03282214342D

 25 27  0     1  0  0  0  0  0999 V2000
    7.0219    1.2321    0.0000 Cl  0  0  0  0  0  0  0  0  0  0  0  0
    6.2455   -1.6657    0.0000 Cl  0  0  0  0  0  0  0  0  0  0  0  0
    6.1310    2.2433    0.0000 Cl  0  0  0  0  0  0  0  0  0  0  0  0
    5.1130    1.6555    0.0000 Cl  0  0  0  0  0  0  0  0  0  0  0  0
    9.0281    0.2573    0.0000 Cl  0  0  0  0  0  0  0  0  0  0  0  0
    8.4032   -2.0746    0.0000 Cl  0  0  0  0  0  0  0  0  0  0  0  0
    2.9397   -1.5575    0.0000 S   0  0  0  0  0  0  0  0  0  0  0  0
    3.0360   -0.5815    0.0000 O   0  0  0  0  0  0  0  0  0  0  0  0
    3.6409   -2.2433    0.0000 O   0  0  0  0  0  0  0  0  0  0  0  0
    2.0000   -1.8995    0.0000 O   0  0  0  0  0  0  0  0  0  0  0  0
    4.7896   -0.3521    0.0000 C   0  0  3  0  0  0  0  0  0  0  0  0
    5.1316   -1.2918    0.0000 C   0  0  3  0  0  0  0  0  0  0  0  0
    6.7631    0.2661    0.0000 C   0  0  3  0  0  0  0  0  0  0  0  0
    6.5043   -0.6998    0.0000 C   0  0  3  0  0  0  0  0  0  0  0  0
    6.0265    1.2488    0.0000 C   0  0  0  0  0  0  0  0  0  0  0  0
    8.1621   -0.2427    0.0000 C   0  0  0  0  0  0  0  0  0  0  0  0
    7.9032   -1.2086    0.0000 C   0  0  0  0  0  0  0  0  0  0  0  0
    3.8578   -0.0460    0.0000 C   0  0  0  0  0  0  0  0  0  0  0  0
    4.6146   -2.1252    0.0000 C   0  0  0  0  0  0  0  0  0  0  0  0
    4.7939    0.2679    0.0000 H   0  0  0  0  0  0  0  0  0  0  0  0
    5.5364   -1.7614    0.0000 H   0  0  0  0  0  0  0  0  0  0  0  0
    4.1780    0.4849    0.0000 H   0  0  0  0  0  0  0  0  0  0  0  0
    3.4118    0.3847    0.0000 H   0  0  0  0  0  0  0  0  0  0  0  0
    4.5498   -2.7419    0.0000 H   0  0  0  0  0  0  0  0  0  0  0  0
    5.2011   -2.3261    0.0000 H   0  0  0  0  0  0  0  0  0  0  0  0
  1 13  1  0  0  0  0
  2 14  1  0  0  0  0
  3 15  1  0  0  0  0
  4 15  1  0  0  0  0
  5 16  1  0  0  0  0
  6 17  1  0  0  0  0
  7  8  1  0  0  0  0
  7  9  1  0  0  0  0
  7 10  2  0  0  0  0
  8 18  1  0  0  0  0
  9 19  1  0  0  0  0
 11 12  1  0  0  0  0
 11 13  1  0  0  0  0
 11 18  1  0  0  0  0
 11 20  1  0  0  0  0
 12 14  1  0  0  0  0
 12 19  1  0  0  0  0
 12 21  1  0  0  0  0
 13 15  1  0  0  0  0
 13 16  1  0  0  0  0
 14 15  1  0  0  0  0
 14 17  1  0  0  0  0
 16 17  2  0  0  0  0
 18 22  1  0  0  0  0
 18 23  1  0  0  0  0
 19 24  1  0  0  0  0
 19 25  1  0  0  0  0
M  END
> <PUBCHEM_COMPOUND_CID>
3224

> <PUBCHEM_COMPOUND_CANONICALIZED>
1

> <PUBCHEM_CACTVS_COMPLEXITY>
470

> <PUBCHEM_CACTVS_HBOND_ACCEPTOR>
4

> <PUBCHEM_CACTVS_HBOND_DONOR>
0

> <PUBCHEM_CACTVS_ROTATABLE_BOND>
0

> <PUBCHEM_CACTVS_SUBSKEYS>
AAADcYBwMABHAAAAAAAAAAAAAAAAAYIAAAAgAAAABIAAAACQAAAAGgIAAAAADQKggIIAAAAAAACAAABAACAAAAAgAAAACEAAAggAAAIBAAAAAAAEgAAIAAPAwDAOgAAAAAAAAAAAAAAAAAAAARAASIACAA==

> <PUBCHEM_IUPAC_OPENEYE_NAME>
1,9,10,11,12,12-hexachloro-4,6-dioxa-5lambda4-thiatricyclo[7.2.1.02,8]dodec-10-ene 5-oxide

> <PUBCHEM_IUPAC_CAS_NAME>
1,9,10,11,12,12-hexachloro-4,6-dioxa-5lambda4-thiatricyclo[7.2.1.02,8]dodec-10-ene 5-oxide

> <PUBCHEM_IUPAC_NAME_MARKUP>
1,9,10,11,12,12-hexachloro-4,6-dioxa-5&lambda;<SUP>4</SUP>-thiatricyclo[7.2.1.0<SUP>2,8</SUP>]dodec-10-ene 5-oxide

> <PUBCHEM_IUPAC_NAME>
1,9,10,11,12,12-hexachloro-4,6-dioxa-5lambda4-thiatricyclo[7.2.1.02,8]dodec-10-ene 5-oxide

> <PUBCHEM_IUPAC_SYSTEMATIC_NAME>
1,9,10,11,12,12-hexakis(chloranyl)-4,6-dioxa-5lambda4-thiatricyclo[7.2.1.02,8]dodec-10-ene 5-oxide

> <PUBCHEM_IUPAC_TRADITIONAL_NAME>
1,9,10,11,12,12-hexachloro-4,6-dioxa-5lambda4-thiatricyclo[7.2.1.02,8]dodec-10-ene 5-oxide

> <PUBCHEM_IUPAC_INCHI>
InChI=1S/C9H6Cl6O3S/c10-5-6(11)8(13)4-2-18-19(16)17-1-3(4)7(5,12)9(8,14)15/h3-4H,1-2H2

> <PUBCHEM_IUPAC_INCHIKEY>
RDYMFSUJUZBWLH-UHFFFAOYSA-N

> <PUBCHEM_XLOGP3>
3.8

> <PUBCHEM_EXACT_MASS>
405.813931

> <PUBCHEM_MOLECULAR_FORMULA>
C9H6Cl6O3S

> <PUBCHEM_MOLECULAR_WEIGHT>
406.9

> <PUBCHEM_OPENEYE_CAN_SMILES>
C1C2C(COS(=O)O1)C3(C(=C(C2(C3(Cl)Cl)Cl)Cl)Cl)Cl

> <PUBCHEM_OPENEYE_ISO_SMILES>
C1C2C(COS(=O)O1)C3(C(=C(C2(C3(Cl)Cl)Cl)Cl)Cl)Cl

> <PUBCHEM_CACTVS_TPSA>
54.7

> <PUBCHEM_MONOISOTOPIC_WEIGHT>
403.816881

> <PUBCHEM_TOTAL_CHARGE>
0

> <PUBCHEM_HEAVY_ATOM_COUNT>
19

> <PUBCHEM_ATOM_DEF_STEREO_COUNT>
0

> <PUBCHEM_ATOM_UDEF_STEREO_COUNT>
4

> <PUBCHEM_BOND_DEF_STEREO_COUNT>
0

> <PUBCHEM_BOND_UDEF_STEREO_COUNT>
0

> <PUBCHEM_ISOTOPIC_ATOM_COUNT>
0

> <PUBCHEM_COMPONENT_COUNT>
1

> <PUBCHEM_CACTVS_TAUTO_COUNT>
-1

> <PUBCHEM_COORDINATE_TYPE>
1
5
255

> <PUBCHEM_BONDANNOTATIONS>
11  18  3
12  19  3
13  15  3
14  15  3

$$$$
