178117
  -OEChem-03282216082D

 72 76  0     0  0  0  0  0  0999 V2000
    9.7942   -1.2500    0.0000 O   0  0  0  0  0  0  0  0  0  0  0  0
    6.3301   -1.2500    0.0000 O   0  0  0  0  0  0  0  0  0  0  0  0
    8.9282    0.2500    0.0000 O   0  0  0  0  0  0  0  0  0  0  0  0
    7.1962    0.2500    0.0000 O   0  0  0  0  0  0  0  0  0  0  0  0
   13.2583   -1.2500    0.0000 O   0  0  0  0  0  0  0  0  0  0  0  0
    4.5981   -4.2500    0.0000 O   0  0  0  0  0  0  0  0  0  0  0  0
   11.5263   -4.2500    0.0000 O   0  0  0  0  0  0  0  0  0  0  0  0
    2.8660   -1.2500    0.0000 O   0  0  0  0  0  0  0  0  0  0  0  0
    8.9282    1.2500    0.0000 N   0  0  0  0  0  0  0  0  0  0  0  0
   11.5263   -1.2500    0.0000 N   0  0  0  0  0  0  0  0  0  0  0  0
    5.4641   -2.7500    0.0000 N   0  0  0  0  0  0  0  0  0  0  0  0
   10.6603   -2.7500    0.0000 N   0  0  0  0  0  0  0  0  0  0  0  0
    4.5981   -1.2500    0.0000 N   0  0  0  0  0  0  0  0  0  0  0  0
    8.0622   -1.2500    0.0000 C   0  0  0  0  0  0  0  0  0  0  0  0
    9.7942    1.7500    0.0000 C   0  0  0  0  0  0  0  0  0  0  0  0
    9.7942    2.7500    0.0000 C   0  0  0  0  0  0  0  0  0  0  0  0
   10.6603    1.2500    0.0000 C   0  0  0  0  0  0  0  0  0  0  0  0
    8.9282   -1.7500    0.0000 C   0  0  0  0  0  0  0  0  0  0  0  0
    7.1962   -1.7500    0.0000 C   0  0  0  0  0  0  0  0  0  0  0  0
    8.9282   -2.7500    0.0000 C   0  0  0  0  0  0  0  0  0  0  0  0
    7.1962   -2.7500    0.0000 C   0  0  0  0  0  0  0  0  0  0  0  0
    8.0622   -3.2500    0.0000 C   0  0  0  0  0  0  0  0  0  0  0  0
    8.0622   -0.2500    0.0000 C   0  0  0  0  0  0  0  0  0  0  0  0
   10.6603    3.2500    0.0000 C   0  0  0  0  0  0  0  0  0  0  0  0
   11.5263    1.7500    0.0000 C   0  0  0  0  0  0  0  0  0  0  0  0
    8.9282    3.2500    0.0000 C   0  0  0  0  0  0  0  0  0  0  0  0
   10.6603    0.2500    0.0000 C   0  0  0  0  0  0  0  0  0  0  0  0
   10.6603    4.2500    0.0000 C   0  0  0  0  0  0  0  0  0  0  0  0
   12.3923    1.2500    0.0000 C   0  0  0  0  0  0  0  0  0  0  0  0
    8.9282    4.2500    0.0000 C   0  0  0  0  0  0  0  0  0  0  0  0
   11.5263   -0.2500    0.0000 C   0  0  0  0  0  0  0  0  0  0  0  0
    9.7942    4.7500    0.0000 C   0  0  0  0  0  0  0  0  0  0  0  0
   12.3923    0.2500    0.0000 C   0  0  0  0  0  0  0  0  0  0  0  0
   10.6603   -1.7500    0.0000 C   0  0  0  0  0  0  0  0  0  0  0  0
    5.4641   -1.7500    0.0000 C   0  0  0  0  0  0  0  0  0  0  0  0
   12.3923   -1.7500    0.0000 C   0  0  0  0  0  0  0  0  0  0  0  0
    4.5981   -3.2500    0.0000 C   0  0  0  0  0  0  0  0  0  0  0  0
   11.5263   -3.2500    0.0000 C   0  0  0  0  0  0  0  0  0  0  0  0
    3.7320   -1.7500    0.0000 C   0  0  0  0  0  0  0  0  0  0  0  0
   12.3923   -2.7500    0.0000 C   0  0  0  0  0  0  0  0  0  0  0  0
    3.7320   -2.7500    0.0000 C   0  0  0  0  0  0  0  0  0  0  0  0
   14.1244   -1.7500    0.0000 C   0  0  0  0  0  0  0  0  0  0  0  0
    3.7320   -4.7500    0.0000 C   0  0  0  0  0  0  0  0  0  0  0  0
   12.3923   -4.7500    0.0000 C   0  0  0  0  0  0  0  0  0  0  0  0
    2.0000   -1.7500    0.0000 C   0  0  0  0  0  0  0  0  0  0  0  0
    9.4651   -3.0600    0.0000 H   0  0  0  0  0  0  0  0  0  0  0  0
    6.6592   -3.0600    0.0000 H   0  0  0  0  0  0  0  0  0  0  0  0
    8.0622   -3.8700    0.0000 H   0  0  0  0  0  0  0  0  0  0  0  0
   11.1972    2.9400    0.0000 H   0  0  0  0  0  0  0  0  0  0  0  0
   11.5263    2.3700    0.0000 H   0  0  0  0  0  0  0  0  0  0  0  0
    8.3913    2.9400    0.0000 H   0  0  0  0  0  0  0  0  0  0  0  0
   10.1233   -0.0600    0.0000 H   0  0  0  0  0  0  0  0  0  0  0  0
   11.1972    4.5600    0.0000 H   0  0  0  0  0  0  0  0  0  0  0  0
   12.9292    1.5600    0.0000 H   0  0  0  0  0  0  0  0  0  0  0  0
    8.3913    4.5600    0.0000 H   0  0  0  0  0  0  0  0  0  0  0  0
   11.5263   -0.8700    0.0000 H   0  0  0  0  0  0  0  0  0  0  0  0
    9.7942    5.3700    0.0000 H   0  0  0  0  0  0  0  0  0  0  0  0
   12.9292   -0.0600    0.0000 H   0  0  0  0  0  0  0  0  0  0  0  0
   12.9292   -3.0600    0.0000 H   0  0  0  0  0  0  0  0  0  0  0  0
    3.1951   -3.0600    0.0000 H   0  0  0  0  0  0  0  0  0  0  0  0
   13.8144   -2.2869    0.0000 H   0  0  0  0  0  0  0  0  0  0  0  0
   14.6613   -2.0600    0.0000 H   0  0  0  0  0  0  0  0  0  0  0  0
   14.4344   -1.2131    0.0000 H   0  0  0  0  0  0  0  0  0  0  0  0
    3.4220   -4.2131    0.0000 H   0  0  0  0  0  0  0  0  0  0  0  0
    3.1951   -5.0600    0.0000 H   0  0  0  0  0  0  0  0  0  0  0  0
    4.0420   -5.2869    0.0000 H   0  0  0  0  0  0  0  0  0  0  0  0
   12.0823   -5.2869    0.0000 H   0  0  0  0  0  0  0  0  0  0  0  0
   12.9292   -5.0600    0.0000 H   0  0  0  0  0  0  0  0  0  0  0  0
   12.7023   -4.2131    0.0000 H   0  0  0  0  0  0  0  0  0  0  0  0
    1.6900   -1.2131    0.0000 H   0  0  0  0  0  0  0  0  0  0  0  0
    1.4631   -2.0600    0.0000 H   0  0  0  0  0  0  0  0  0  0  0  0
    2.3100   -2.2869    0.0000 H   0  0  0  0  0  0  0  0  0  0  0  0
  1 18  1  0  0  0  0
  1 34  1  0  0  0  0
  2 19  1  0  0  0  0
  2 35  1  0  0  0  0
  3  9  1  0  0  0  0
  3 23  1  0  0  0  0
  4 23  2  0  0  0  0
  5 36  1  0  0  0  0
  5 42  1  0  0  0  0
  6 37  1  0  0  0  0
  6 43  1  0  0  0  0
  7 38  1  0  0  0  0
  7 44  1  0  0  0  0
  8 39  1  0  0  0  0
  8 45  1  0  0  0  0
  9 15  2  0  0  0  0
 10 34  1  0  0  0  0
 10 36  2  0  0  0  0
 11 35  1  0  0  0  0
 11 37  2  0  0  0  0
 12 34  2  0  0  0  0
 12 38  1  0  0  0  0
 13 35  2  0  0  0  0
 13 39  1  0  0  0  0
 14 18  2  0  0  0  0
 14 19  1  0  0  0  0
 14 23  1  0  0  0  0
 15 16  1  0  0  0  0
 15 17  1  0  0  0  0
 16 24  2  0  0  0  0
 16 26  1  0  0  0  0
 17 25  2  0  0  0  0
 17 27  1  0  0  0  0
 18 20  1  0  0  0  0
 19 21  2  0  0  0  0
 20 22  2  0  0  0  0
 20 46  1  0  0  0  0
 21 22  1  0  0  0  0
 21 47  1  0  0  0  0
 22 48  1  0  0  0  0
 24 28  1  0  0  0  0
 24 49  1  0  0  0  0
 25 29  1  0  0  0  0
 25 50  1  0  0  0  0
 26 30  2  0  0  0  0
 26 51  1  0  0  0  0
 27 31  2  0  0  0  0
 27 52  1  0  0  0  0
 28 32  2  0  0  0  0
 28 53  1  0  0  0  0
 29 33  2  0  0  0  0
 29 54  1  0  0  0  0
 30 32  1  0  0  0  0
 30 55  1  0  0  0  0
 31 33  1  0  0  0  0
 31 56  1  0  0  0  0
 32 57  1  0  0  0  0
 33 58  1  0  0  0  0
 36 40  1  0  0  0  0
 37 41  1  0  0  0  0
 38 40  2  0  0  0  0
 39 41  2  0  0  0  0
 40 59  1  0  0  0  0
 41 60  1  0  0  0  0
 42 61  1  0  0  0  0
 42 62  1  0  0  0  0
 42 63  1  0  0  0  0
 43 64  1  0  0  0  0
 43 65  1  0  0  0  0
 43 66  1  0  0  0  0
 44 67  1  0  0  0  0
 44 68  1  0  0  0  0
 44 69  1  0  0  0  0
 45 70  1  0  0  0  0
 45 71  1  0  0  0  0
 45 72  1  0  0  0  0
M  END
> <PUBCHEM_COMPOUND_CID>
178117

> <PUBCHEM_COMPOUND_CANONICALIZED>
1

> <PUBCHEM_CACTVS_COMPLEXITY>
849

> <PUBCHEM_CACTVS_HBOND_ACCEPTOR>
13

> <PUBCHEM_CACTVS_HBOND_DONOR>
0

> <PUBCHEM_CACTVS_ROTATABLE_BOND>
13

> <PUBCHEM_CACTVS_SUBSKEYS>
AAADceB/vAAAAAAAAAAAAAAAAAAAAAAAAAA8eMECAAAAAAAB9AAAHgAEAAAADAyBmgIznpYYFACoAyDybACCiCklIqAJmCE2bNiML7bEfVqMNWgv4B9IqSeI6OyOAAAACAAIAAAAAAAQABAAAAAAAAAAAA==

> <PUBCHEM_IUPAC_OPENEYE_NAME>
(benzhydrylideneamino) 2,6-bis[(4,6-dimethoxypyrimidin-2-yl)oxy]benzoate

> <PUBCHEM_IUPAC_CAS_NAME>
2,6-bis[(4,6-dimethoxy-2-pyrimidinyl)oxy]benzoic acid [(diphenylmethylene)amino] ester

> <PUBCHEM_IUPAC_NAME_MARKUP>
(benzhydrylideneamino) 2,6-bis[(4,6-dimethoxypyrimidin-2-yl)oxy]benzoate

> <PUBCHEM_IUPAC_NAME>
(benzhydrylideneamino) 2,6-bis[(4,6-dimethoxypyrimidin-2-yl)oxy]benzoate

> <PUBCHEM_IUPAC_SYSTEMATIC_NAME>
[(diphenylmethylidene)amino] 2,6-bis[(4,6-dimethoxypyrimidin-2-yl)oxy]benzoate

> <PUBCHEM_IUPAC_TRADITIONAL_NAME>
2,6-bis[(4,6-dimethoxypyrimidin-2-yl)oxy]benzoic acid (benzhydrylideneamino) ester

> <PUBCHEM_IUPAC_INCHI>
InChI=1S/C32H27N5O8/c1-39-24-18-25(40-2)34-31(33-24)43-22-16-11-17-23(44-32-35-26(41-3)19-27(36-32)42-4)28(22)30(38)45-37-29(20-12-7-5-8-13-20)21-14-9-6-10-15-21/h5-19H,1-4H3

> <PUBCHEM_IUPAC_INCHIKEY>
OVXMBIVWNJDDSM-UHFFFAOYSA-N

> <PUBCHEM_XLOGP3_AA>
6.8

> <PUBCHEM_EXACT_MASS>
609.18596284

> <PUBCHEM_MOLECULAR_FORMULA>
C32H27N5O8

> <PUBCHEM_MOLECULAR_WEIGHT>
609.6

> <PUBCHEM_OPENEYE_CAN_SMILES>
COC1=CC(=NC(=N1)OC2=C(C(=CC=C2)OC3=NC(=CC(=N3)OC)OC)C(=O)ON=C(C4=CC=CC=C4)C5=CC=CC=C5)OC

> <PUBCHEM_OPENEYE_ISO_SMILES>
COC1=CC(=NC(=N1)OC2=C(C(=CC=C2)OC3=NC(=CC(=N3)OC)OC)C(=O)ON=C(C4=CC=CC=C4)C5=CC=CC=C5)OC

> <PUBCHEM_CACTVS_TPSA>
146

> <PUBCHEM_MONOISOTOPIC_WEIGHT>
609.18596284

> <PUBCHEM_TOTAL_CHARGE>
0

> <PUBCHEM_HEAVY_ATOM_COUNT>
45

> <PUBCHEM_ATOM_DEF_STEREO_COUNT>
0

> <PUBCHEM_ATOM_UDEF_STEREO_COUNT>
0

> <PUBCHEM_BOND_DEF_STEREO_COUNT>
0

> <PUBCHEM_BOND_UDEF_STEREO_COUNT>
0

> <PUBCHEM_ISOTOPIC_ATOM_COUNT>
0

> <PUBCHEM_COMPONENT_COUNT>
1

> <PUBCHEM_CACTVS_TAUTO_COUNT>
-1

> <PUBCHEM_COORDINATE_TYPE>
1
5
255

> <PUBCHEM_BONDANNOTATIONS>
10  34  8
10  36  8
11  35  8
11  37  8
12  34  8
12  38  8
13  35  8
13  39  8
14  18  8
14  19  8
16  24  8
16  26  8
17  25  8
17  27  8
18  20  8
19  21  8
20  22  8
21  22  8
24  28  8
25  29  8
26  30  8
27  31  8
28  32  8
29  33  8
30  32  8
31  33  8
36  40  8
37  41  8
38  40  8
39  41  8

$$$$
