30709
  -OEChem-03282215372D

 30 31  0     1  0  0  0  0  0999 V2000
    3.7320   -3.2500    0.0000 Br  0  0  0  0  0  0  0  0  0  0  0  0
    2.0000   -0.2500    0.0000 Cl  0  0  0  0  0  0  0  0  0  0  0  0
    5.4641   -2.2500    0.0000 Cl  0  0  0  0  0  0  0  0  0  0  0  0
    5.0981    0.3840    0.0000 S   0  0  0  0  0  0  0  0  0  0  0  0
    4.5981    1.2500    0.0000 P   0  0  3  0  0  0  0  0  0  0  0  0
    3.7320    0.7500    0.0000 O   0  0  0  0  0  0  0  0  0  0  0  0
    4.0981    2.1160    0.0000 O   0  0  0  0  0  0  0  0  0  0  0  0
    5.4641    1.7500    0.0000 C   0  0  0  0  0  0  0  0  0  0  0  0
    3.7320   -0.2500    0.0000 C   0  0  0  0  0  0  0  0  0  0  0  0
    5.4641    2.7500    0.0000 C   0  0  0  0  0  0  0  0  0  0  0  0
    6.3301    1.2500    0.0000 C   0  0  0  0  0  0  0  0  0  0  0  0
    6.3301    3.2500    0.0000 C   0  0  0  0  0  0  0  0  0  0  0  0
    7.1962    1.7500    0.0000 C   0  0  0  0  0  0  0  0  0  0  0  0
    2.8660   -0.7500    0.0000 C   0  0  0  0  0  0  0  0  0  0  0  0
    4.5981   -0.7500    0.0000 C   0  0  0  0  0  0  0  0  0  0  0  0
    7.1962    2.7500    0.0000 C   0  0  0  0  0  0  0  0  0  0  0  0
    4.5981   -1.7500    0.0000 C   0  0  0  0  0  0  0  0  0  0  0  0
    2.8660   -1.7500    0.0000 C   0  0  0  0  0  0  0  0  0  0  0  0
    3.7320   -2.2500    0.0000 C   0  0  0  0  0  0  0  0  0  0  0  0
    3.0981    2.1160    0.0000 C   0  0  0  0  0  0  0  0  0  0  0  0
    4.9272    3.0600    0.0000 H   0  0  0  0  0  0  0  0  0  0  0  0
    6.3301    0.6300    0.0000 H   0  0  0  0  0  0  0  0  0  0  0  0
    6.3301    3.8700    0.0000 H   0  0  0  0  0  0  0  0  0  0  0  0
    7.7331    1.4400    0.0000 H   0  0  0  0  0  0  0  0  0  0  0  0
    5.1350   -0.4400    0.0000 H   0  0  0  0  0  0  0  0  0  0  0  0
    7.7331    3.0600    0.0000 H   0  0  0  0  0  0  0  0  0  0  0  0
    2.3291   -2.0600    0.0000 H   0  0  0  0  0  0  0  0  0  0  0  0
    3.0981    2.7360    0.0000 H   0  0  0  0  0  0  0  0  0  0  0  0
    2.4781    2.1160    0.0000 H   0  0  0  0  0  0  0  0  0  0  0  0
    3.0981    1.4960    0.0000 H   0  0  0  0  0  0  0  0  0  0  0  0
  1 19  1  0  0  0  0
  2 14  1  0  0  0  0
  3 17  1  0  0  0  0
  4  5  2  0  0  0  0
  5  6  1  0  0  0  0
  5  7  1  0  0  0  0
  5  8  1  0  0  0  0
  6  9  1  0  0  0  0
  7 20  1  0  0  0  0
  8 10  2  0  0  0  0
  8 11  1  0  0  0  0
  9 14  1  0  0  0  0
  9 15  2  0  0  0  0
 10 12  1  0  0  0  0
 10 21  1  0  0  0  0
 11 13  2  0  0  0  0
 11 22  1  0  0  0  0
 12 16  2  0  0  0  0
 12 23  1  0  0  0  0
 13 16  1  0  0  0  0
 13 24  1  0  0  0  0
 14 18  2  0  0  0  0
 15 17  1  0  0  0  0
 15 25  1  0  0  0  0
 16 26  1  0  0  0  0
 17 19  2  0  0  0  0
 18 19  1  0  0  0  0
 18 27  1  0  0  0  0
 20 28  1  0  0  0  0
 20 29  1  0  0  0  0
 20 30  1  0  0  0  0
M  END
> <PUBCHEM_COMPOUND_CID>
30709

> <PUBCHEM_COMPOUND_CANONICALIZED>
1

> <PUBCHEM_CACTVS_COMPLEXITY>
368

> <PUBCHEM_CACTVS_HBOND_ACCEPTOR>
3

> <PUBCHEM_CACTVS_HBOND_DONOR>
0

> <PUBCHEM_CACTVS_ROTATABLE_BOND>
4

> <PUBCHEM_CACTVS_SUBSKEYS>
AAADccBwMAJGEAAAAAAAAAAAAAAAAAAAAAAwYAAAAAAAAAABQAAAGgpAACABqAaAkCIyBoAAARCAACBCAAACAAAgJUQIiAAGC6gIJiKBExKAMAAkwBEIiheAQAAAABAQAQBACAIAICACAIAQBAAAAAAAAA==

> <PUBCHEM_IUPAC_OPENEYE_NAME>
(4-bromo-2,5-dichloro-phenoxy)-methoxy-phenyl-thioxo-lambda5-phosphane

> <PUBCHEM_IUPAC_CAS_NAME>
(4-bromo-2,5-dichlorophenoxy)-methoxy-phenyl-sulfanylidenephosphorane

> <PUBCHEM_IUPAC_NAME_MARKUP>
(4-bromo-2,5-dichlorophenoxy)-methoxy-phenyl-sulfanylidene-&lambda;<SUP>5</SUP>-phosphane

> <PUBCHEM_IUPAC_NAME>
(4-bromo-2,5-dichlorophenoxy)-methoxy-phenyl-sulfanylidene-lambda5-phosphane

> <PUBCHEM_IUPAC_SYSTEMATIC_NAME>
[4-bromanyl-2,5-bis(chloranyl)phenoxy]-methoxy-phenyl-sulfanylidene-lambda5-phosphane

> <PUBCHEM_IUPAC_TRADITIONAL_NAME>
(4-bromo-2,5-dichloro-phenoxy)-methoxy-phenyl-thioxo-phosphorane

> <PUBCHEM_IUPAC_INCHI>
InChI=1S/C13H10BrCl2O2PS/c1-17-19(20,9-5-3-2-4-6-9)18-13-8-11(15)10(14)7-12(13)16/h2-8H,1H3

> <PUBCHEM_IUPAC_INCHIKEY>
CVRALZAYCYJELZ-UHFFFAOYSA-N

> <PUBCHEM_XLOGP3>
6.3

> <PUBCHEM_EXACT_MASS>
409.86996

> <PUBCHEM_MOLECULAR_FORMULA>
C13H10BrCl2O2PS

> <PUBCHEM_MOLECULAR_WEIGHT>
412.1

> <PUBCHEM_OPENEYE_CAN_SMILES>
COP(=S)(C1=CC=CC=C1)OC2=CC(=C(C=C2Cl)Br)Cl

> <PUBCHEM_OPENEYE_ISO_SMILES>
COP(=S)(C1=CC=CC=C1)OC2=CC(=C(C=C2Cl)Br)Cl

> <PUBCHEM_CACTVS_TPSA>
50.6

> <PUBCHEM_MONOISOTOPIC_WEIGHT>
409.86996

> <PUBCHEM_TOTAL_CHARGE>
0

> <PUBCHEM_HEAVY_ATOM_COUNT>
20

> <PUBCHEM_ATOM_DEF_STEREO_COUNT>
0

> <PUBCHEM_ATOM_UDEF_STEREO_COUNT>
1

> <PUBCHEM_BOND_DEF_STEREO_COUNT>
0

> <PUBCHEM_BOND_UDEF_STEREO_COUNT>
0

> <PUBCHEM_ISOTOPIC_ATOM_COUNT>
0

> <PUBCHEM_COMPONENT_COUNT>
1

> <PUBCHEM_CACTVS_TAUTO_COUNT>
1

> <PUBCHEM_COORDINATE_TYPE>
1
5
255

> <PUBCHEM_BONDANNOTATIONS>
10  12  8
11  13  8
12  16  8
13  16  8
14  18  8
15  17  8
17  19  8
18  19  8
5  7  3
8  10  8
8  11  8
9  14  8
9  15  8

$$$$
