19657
  -OEChem-03282214332D

 22 23  0     1  0  0  0  0  0999 V2000
    6.0321   -1.2003    0.0000 S   0  0  0  0  0  0  0  0  0  0  0  0
    5.5321   -0.3343    0.0000 P   0  0  3  0  0  0  0  0  0  0  0  0
    5.5321    0.6657    0.0000 O   0  0  0  0  0  0  0  0  0  0  0  0
    4.6660   -0.8343    0.0000 O   0  0  0  0  0  0  0  0  0  0  0  0
    6.5321   -0.3343    0.0000 O   0  0  0  0  0  0  0  0  0  0  0  0
    3.8000    0.6657    0.0000 C   0  0  0  0  0  0  0  0  0  0  0  0
    4.6660    1.1657    0.0000 C   0  0  0  0  0  0  0  0  0  0  0  0
    3.8000   -0.3343    0.0000 C   0  0  0  0  0  0  0  0  0  0  0  0
    2.9061    1.2003    0.0000 C   0  0  0  0  0  0  0  0  0  0  0  0
    2.9061   -0.8690    0.0000 C   0  0  0  0  0  0  0  0  0  0  0  0
    2.0000    0.6865    0.0000 C   0  0  0  0  0  0  0  0  0  0  0  0
    2.0000   -0.3551    0.0000 C   0  0  0  0  0  0  0  0  0  0  0  0
    7.0321    0.5317    0.0000 C   0  0  0  0  0  0  0  0  0  0  0  0
    5.0646    1.6406    0.0000 H   0  0  0  0  0  0  0  0  0  0  0  0
    4.2675    1.6406    0.0000 H   0  0  0  0  0  0  0  0  0  0  0  0
    2.9132    1.8203    0.0000 H   0  0  0  0  0  0  0  0  0  0  0  0
    2.9132   -1.4889    0.0000 H   0  0  0  0  0  0  0  0  0  0  0  0
    1.4643    0.9986    0.0000 H   0  0  0  0  0  0  0  0  0  0  0  0
    1.4643   -0.6672    0.0000 H   0  0  0  0  0  0  0  0  0  0  0  0
    7.5690    0.2217    0.0000 H   0  0  0  0  0  0  0  0  0  0  0  0
    7.3421    1.0686    0.0000 H   0  0  0  0  0  0  0  0  0  0  0  0
    6.4951    0.8417    0.0000 H   0  0  0  0  0  0  0  0  0  0  0  0
  1  2  2  0  0  0  0
  2  3  1  0  0  0  0
  2  4  1  0  0  0  0
  2  5  1  0  0  0  0
  3  7  1  0  0  0  0
  4  8  1  0  0  0  0
  5 13  1  0  0  0  0
  6  7  1  0  0  0  0
  6  8  1  0  0  0  0
  6  9  2  0  0  0  0
  7 14  1  0  0  0  0
  7 15  1  0  0  0  0
  8 10  2  0  0  0  0
  9 11  1  0  0  0  0
  9 16  1  0  0  0  0
 10 12  1  0  0  0  0
 10 17  1  0  0  0  0
 11 12  2  0  0  0  0
 11 18  1  0  0  0  0
 12 19  1  0  0  0  0
 13 20  1  0  0  0  0
 13 21  1  0  0  0  0
 13 22  1  0  0  0  0
M  END
> <PUBCHEM_COMPOUND_CID>
19657

> <PUBCHEM_COMPOUND_CANONICALIZED>
1

> <PUBCHEM_CACTVS_COMPLEXITY>
233

> <PUBCHEM_CACTVS_HBOND_ACCEPTOR>
4

> <PUBCHEM_CACTVS_HBOND_DONOR>
0

> <PUBCHEM_CACTVS_ROTATABLE_BOND>
1

> <PUBCHEM_CACTVS_SUBSKEYS>
AAADccBwMAJAAAAAAAAAAAAAAAAAAAAAAAA0QAAAAAAAAACRAAAAGgAAACAADASgmAIyBoAAARCAAiBCAAACAAAgIAAIiAAGCIgIJyKAERKAMAAlwBEIiAeAwCAOAAAAAAAIAAAAAAAAABAAAAAAAAAAAA==

> <PUBCHEM_IUPAC_OPENEYE_NAME>
2-methoxy-2-thioxo-4H-1,3,2lambda5-benzodioxaphosphinine

> <PUBCHEM_IUPAC_CAS_NAME>
2-methoxy-2-sulfanylidene-4H-1,3,2lambda5-benzodioxaphosphorin

> <PUBCHEM_IUPAC_NAME_MARKUP>
2-methoxy-2-sulfanylidene-4<I>H</I>-1,3,2&lambda;<SUP>5</SUP>-benzodioxaphosphinine

> <PUBCHEM_IUPAC_NAME>
2-methoxy-2-sulfanylidene-4H-1,3,2lambda5-benzodioxaphosphinine

> <PUBCHEM_IUPAC_SYSTEMATIC_NAME>
2-methoxy-2-sulfanylidene-4H-1,3,2lambda5-benzodioxaphosphinine

> <PUBCHEM_IUPAC_TRADITIONAL_NAME>
2-methoxy-2-thioxo-4H-1,3,2lambda5-benzodioxaphosphorin

> <PUBCHEM_IUPAC_INCHI>
InChI=1S/C8H9O3PS/c1-9-12(13)10-6-7-4-2-3-5-8(7)11-12/h2-5H,6H2,1H3

> <PUBCHEM_IUPAC_INCHIKEY>
OUNSASXJZHBGAI-UHFFFAOYSA-N

> <PUBCHEM_XLOGP3>
2.7

> <PUBCHEM_EXACT_MASS>
216.00100232

> <PUBCHEM_MOLECULAR_FORMULA>
C8H9O3PS

> <PUBCHEM_MOLECULAR_WEIGHT>
216.20

> <PUBCHEM_OPENEYE_CAN_SMILES>
COP1(=S)OCC2=CC=CC=C2O1

> <PUBCHEM_OPENEYE_ISO_SMILES>
COP1(=S)OCC2=CC=CC=C2O1

> <PUBCHEM_CACTVS_TPSA>
59.8

> <PUBCHEM_MONOISOTOPIC_WEIGHT>
216.00100232

> <PUBCHEM_TOTAL_CHARGE>
0

> <PUBCHEM_HEAVY_ATOM_COUNT>
13

> <PUBCHEM_ATOM_DEF_STEREO_COUNT>
0

> <PUBCHEM_ATOM_UDEF_STEREO_COUNT>
1

> <PUBCHEM_BOND_DEF_STEREO_COUNT>
0

> <PUBCHEM_BOND_UDEF_STEREO_COUNT>
0

> <PUBCHEM_ISOTOPIC_ATOM_COUNT>
0

> <PUBCHEM_COMPONENT_COUNT>
1

> <PUBCHEM_CACTVS_TAUTO_COUNT>
1

> <PUBCHEM_COORDINATE_TYPE>
1
5
255

> <PUBCHEM_BONDANNOTATIONS>
10  12  8
11  12  8
2  5  3
6  8  8
6  9  8
8  10  8
9  11  8

$$$$
