10403199
  -OEChem-03282214402D

 39 41  0     1  0  0  0  0  0999 V2000
    5.5202    0.4907    0.0000 S   0  0  0  0  0  0  0  0  0  0  0  0
    2.0000    0.4907    0.0000 O   0  0  0  0  0  0  0  0  0  0  0  0
    3.7601    0.7694    0.0000 N   0  0  0  0  0  0  0  0  0  0  0  0
    4.2601   -0.7694    0.0000 N   0  0  0  0  0  0  0  0  0  0  0  0
    3.7601    1.7694    0.0000 N   0  0  0  0  0  0  0  0  0  0  0  0
    3.2601   -0.7694    0.0000 C   0  0  2  0  0  0  0  0  0  0  0  0
    2.9511    0.1816    0.0000 C   0  0  0  0  0  0  0  0  0  0  0  0
    3.2601   -1.7694    0.0000 C   0  0  0  0  0  0  0  0  0  0  0  0
    2.3090   -1.0784    0.0000 C   0  0  0  0  0  0  0  0  0  0  0  0
    4.5691    0.1816    0.0000 C   0  0  0  0  0  0  0  0  0  0  0  0
    2.3940   -2.2694    0.0000 C   0  0  0  0  0  0  0  0  0  0  0  0
    4.1261   -2.2694    0.0000 C   0  0  0  0  0  0  0  0  0  0  0  0
    4.6261    2.2694    0.0000 C   0  0  0  0  0  0  0  0  0  0  0  0
    2.3940   -3.2694    0.0000 C   0  0  0  0  0  0  0  0  0  0  0  0
    4.1261   -3.2694    0.0000 C   0  0  0  0  0  0  0  0  0  0  0  0
    3.2601   -3.7694    0.0000 C   0  0  0  0  0  0  0  0  0  0  0  0
    5.4921    1.7694    0.0000 C   0  0  0  0  0  0  0  0  0  0  0  0
    4.6261    3.2694    0.0000 C   0  0  0  0  0  0  0  0  0  0  0  0
    6.2633   -0.1785    0.0000 C   0  0  0  0  0  0  0  0  0  0  0  0
    6.3582    2.2694    0.0000 C   0  0  0  0  0  0  0  0  0  0  0  0
    5.4921    3.7694    0.0000 C   0  0  0  0  0  0  0  0  0  0  0  0
    6.3582    3.2694    0.0000 C   0  0  0  0  0  0  0  0  0  0  0  0
    2.1174   -0.4888    0.0000 H   0  0  0  0  0  0  0  0  0  0  0  0
    1.7194   -1.2700    0.0000 H   0  0  0  0  0  0  0  0  0  0  0  0
    2.5006   -1.6681    0.0000 H   0  0  0  0  0  0  0  0  0  0  0  0
    1.8571   -1.9594    0.0000 H   0  0  0  0  0  0  0  0  0  0  0  0
    4.6630   -1.9594    0.0000 H   0  0  0  0  0  0  0  0  0  0  0  0
    3.2231    2.0794    0.0000 H   0  0  0  0  0  0  0  0  0  0  0  0
    1.8571   -3.5794    0.0000 H   0  0  0  0  0  0  0  0  0  0  0  0
    4.6630   -3.5794    0.0000 H   0  0  0  0  0  0  0  0  0  0  0  0
    3.2601   -4.3894    0.0000 H   0  0  0  0  0  0  0  0  0  0  0  0
    5.4921    1.1494    0.0000 H   0  0  0  0  0  0  0  0  0  0  0  0
    4.0892    3.5794    0.0000 H   0  0  0  0  0  0  0  0  0  0  0  0
    5.8484   -0.6392    0.0000 H   0  0  0  0  0  0  0  0  0  0  0  0
    6.7240   -0.5933    0.0000 H   0  0  0  0  0  0  0  0  0  0  0  0
    6.6782    0.2823    0.0000 H   0  0  0  0  0  0  0  0  0  0  0  0
    6.8951    1.9594    0.0000 H   0  0  0  0  0  0  0  0  0  0  0  0
    5.4921    4.3894    0.0000 H   0  0  0  0  0  0  0  0  0  0  0  0
    6.8951    3.5794    0.0000 H   0  0  0  0  0  0  0  0  0  0  0  0
  1 10  1  0  0  0  0
  1 19  1  0  0  0  0
  2  7  2  0  0  0  0
  3  5  1  0  0  0  0
  3  7  1  0  0  0  0
  3 10  1  0  0  0  0
  4  6  1  0  0  0  0
  4 10  2  0  0  0  0
  5 13  1  0  0  0  0
  5 28  1  0  0  0  0
  6  7  1  0  0  0  0
  6  8  1  0  0  0  0
  6  9  1  6  0  0  0
  8 11  2  0  0  0  0
  8 12  1  0  0  0  0
  9 23  1  0  0  0  0
  9 24  1  0  0  0  0
  9 25  1  0  0  0  0
 11 14  1  0  0  0  0
 11 26  1  0  0  0  0
 12 15  2  0  0  0  0
 12 27  1  0  0  0  0
 13 17  2  0  0  0  0
 13 18  1  0  0  0  0
 14 16  2  0  0  0  0
 14 29  1  0  0  0  0
 15 16  1  0  0  0  0
 15 30  1  0  0  0  0
 16 31  1  0  0  0  0
 17 20  1  0  0  0  0
 17 32  1  0  0  0  0
 18 21  2  0  0  0  0
 18 33  1  0  0  0  0
 19 34  1  0  0  0  0
 19 35  1  0  0  0  0
 19 36  1  0  0  0  0
 20 22  2  0  0  0  0
 20 37  1  0  0  0  0
 21 22  1  0  0  0  0
 21 38  1  0  0  0  0
 22 39  1  0  0  0  0
M  END
> <PUBCHEM_COMPOUND_CID>
10403199

> <PUBCHEM_COMPOUND_CANONICALIZED>
1

> <PUBCHEM_CACTVS_COMPLEXITY>
441

> <PUBCHEM_CACTVS_HBOND_ACCEPTOR>
4

> <PUBCHEM_CACTVS_HBOND_DONOR>
1

> <PUBCHEM_CACTVS_ROTATABLE_BOND>
4

> <PUBCHEM_CACTVS_SUBSKEYS>
AAADceB7IABAAAAAAAAAAAAAAAAAAQAAAAAwYAAAAAAAAAABQAAAHgQYAAAADIiBmACzwIJiAAioAiVSdACCFAFgAgAbqAGAZIgIYDKAnZGUIABgkAAIyAcYiMCOgAAAAAAAAAAAAAAAAAAAAAAAAAAAAA==

> <PUBCHEM_IUPAC_OPENEYE_NAME>
(5S)-3-anilino-5-methyl-2-methylsulfanyl-5-phenyl-imidazol-4-one

> <PUBCHEM_IUPAC_CAS_NAME>
(5S)-3-anilino-5-methyl-2-(methylthio)-5-phenyl-4-imidazolone

> <PUBCHEM_IUPAC_NAME_MARKUP>
(5<I>S</I>)-3-anilino-5-methyl-2-methylsulfanyl-5-phenylimidazol-4-one

> <PUBCHEM_IUPAC_NAME>
(5S)-3-anilino-5-methyl-2-methylsulfanyl-5-phenylimidazol-4-one

> <PUBCHEM_IUPAC_SYSTEMATIC_NAME>
(5S)-5-methyl-2-methylsulfanyl-5-phenyl-3-phenylazanyl-imidazol-4-one

> <PUBCHEM_IUPAC_TRADITIONAL_NAME>
(5S)-3-anilino-5-methyl-2-(methylthio)-5-phenyl-2-imidazolin-4-one

> <PUBCHEM_IUPAC_INCHI>
InChI=1S/C17H17N3OS/c1-17(13-9-5-3-6-10-13)15(21)20(16(18-17)22-2)19-14-11-7-4-8-12-14/h3-12,19H,1-2H3/t17-/m0/s1

> <PUBCHEM_IUPAC_INCHIKEY>
LMVPQMGRYSRMIW-KRWDZBQOSA-N

> <PUBCHEM_XLOGP3_AA>
4.1

> <PUBCHEM_EXACT_MASS>
311.10923335

> <PUBCHEM_MOLECULAR_FORMULA>
C17H17N3OS

> <PUBCHEM_MOLECULAR_WEIGHT>
311.4

> <PUBCHEM_OPENEYE_CAN_SMILES>
CC1(C(=O)N(C(=N1)SC)NC2=CC=CC=C2)C3=CC=CC=C3

> <PUBCHEM_OPENEYE_ISO_SMILES>
C[C@@]1(C(=O)N(C(=N1)SC)NC2=CC=CC=C2)C3=CC=CC=C3

> <PUBCHEM_CACTVS_TPSA>
70

> <PUBCHEM_MONOISOTOPIC_WEIGHT>
311.10923335

> <PUBCHEM_TOTAL_CHARGE>
0

> <PUBCHEM_HEAVY_ATOM_COUNT>
22

> <PUBCHEM_ATOM_DEF_STEREO_COUNT>
1

> <PUBCHEM_ATOM_UDEF_STEREO_COUNT>
0

> <PUBCHEM_BOND_DEF_STEREO_COUNT>
0

> <PUBCHEM_BOND_UDEF_STEREO_COUNT>
0

> <PUBCHEM_ISOTOPIC_ATOM_COUNT>
0

> <PUBCHEM_COMPONENT_COUNT>
1

> <PUBCHEM_CACTVS_TAUTO_COUNT>
1

> <PUBCHEM_COORDINATE_TYPE>
1
5
255

> <PUBCHEM_BONDANNOTATIONS>
11  14  8
12  15  8
13  17  8
13  18  8
14  16  8
15  16  8
17  20  8
18  21  8
20  22  8
21  22  8
6  9  6
8  11  8
8  12  8

$$$$
