24722
  -OEChem-03282216272D

 66 64  0     0  0  0  0  0  0999 V2000
    4.0010    1.5369    0.0000 S   0  0  0  0  0  0  0  0  0  0  0  0
    6.5991    1.0369    0.0000 S   0  0  0  0  0  0  0  0  0  0  0  0
    6.5991    7.2089    0.0000 S   0  0  0  0  0  0  0  0  0  0  0  0
    3.6350    6.3429    0.0000 S   0  0  0  0  0  0  0  0  0  0  0  0
    3.1350    1.0369    0.0000 P   0  0  0  0  0  0  0  0  0  0  0  0
    3.1350    7.2089    0.0000 P   0  0  0  0  0  0  0  0  0  0  0  0
    4.0010    7.7089    0.0000 O   0  0  0  0  0  0  0  0  0  0  0  0
    2.2690    0.5369    0.0000 O   0  0  0  0  0  0  0  0  0  0  0  0
    2.6350    1.9030    0.0000 O   0  0  0  0  0  0  0  0  0  0  0  0
    2.2690    6.7089    0.0000 O   0  0  0  0  0  0  0  0  0  0  0  0
    2.6350    8.0749    0.0000 O   0  0  0  0  0  0  0  0  0  0  0  0
    3.6350    0.1709    0.0000 O   0  0  0  0  0  0  0  0  0  0  0  0
    4.8671    1.0369    0.0000 C   0  0  0  0  0  0  0  0  0  0  0  0
    4.8671    7.2089    0.0000 C   0  0  0  0  0  0  0  0  0  0  0  0
    5.7331    1.5369    0.0000 C   0  0  0  0  0  0  0  0  0  0  0  0
    5.7331    7.7089    0.0000 C   0  0  0  0  0  0  0  0  0  0  0  0
    1.4030    1.0369    0.0000 C   0  0  0  0  0  0  0  0  0  0  0  0
    3.1350    2.7690    0.0000 C   0  0  0  0  0  0  0  0  0  0  0  0
    1.4030    7.2089    0.0000 C   0  0  0  0  0  0  0  0  0  0  0  0
    3.1350    8.9409    0.0000 C   0  0  0  0  0  0  0  0  0  0  0  0
    7.4651    1.5369    0.0000 C   0  0  0  0  0  0  0  0  0  0  0  0
    7.4651    7.7089    0.0000 C   0  0  0  0  0  0  0  0  0  0  0  0
    0.5369    0.5369    0.0000 C   0  0  0  0  0  0  0  0  0  0  0  0
    2.6350    3.6350    0.0000 C   0  0  0  0  0  0  0  0  0  0  0  0
    0.5369    6.7089    0.0000 C   0  0  0  0  0  0  0  0  0  0  0  0
    2.6350    9.8070    0.0000 C   0  0  0  0  0  0  0  0  0  0  0  0
    8.3312    1.0369    0.0000 C   0  0  0  0  0  0  0  0  0  0  0  0
    8.3312    7.2089    0.0000 C   0  0  0  0  0  0  0  0  0  0  0  0
    4.4685    0.5620    0.0000 H   0  0  0  0  0  0  0  0  0  0  0  0
    5.2656    0.5620    0.0000 H   0  0  0  0  0  0  0  0  0  0  0  0
    4.4685    6.7339    0.0000 H   0  0  0  0  0  0  0  0  0  0  0  0
    5.2656    6.7339    0.0000 H   0  0  0  0  0  0  0  0  0  0  0  0
    6.1316    2.0119    0.0000 H   0  0  0  0  0  0  0  0  0  0  0  0
    5.3346    2.0119    0.0000 H   0  0  0  0  0  0  0  0  0  0  0  0
    6.1316    8.1838    0.0000 H   0  0  0  0  0  0  0  0  0  0  0  0
    5.3346    8.1838    0.0000 H   0  0  0  0  0  0  0  0  0  0  0  0
    1.8015    1.5119    0.0000 H   0  0  0  0  0  0  0  0  0  0  0  0
    1.0044    1.5119    0.0000 H   0  0  0  0  0  0  0  0  0  0  0  0
    3.6100    2.3705    0.0000 H   0  0  0  0  0  0  0  0  0  0  0  0
    3.6100    3.1675    0.0000 H   0  0  0  0  0  0  0  0  0  0  0  0
    1.8015    7.6838    0.0000 H   0  0  0  0  0  0  0  0  0  0  0  0
    1.0044    7.6838    0.0000 H   0  0  0  0  0  0  0  0  0  0  0  0
    3.6100    8.5424    0.0000 H   0  0  0  0  0  0  0  0  0  0  0  0
    3.6100    9.3395    0.0000 H   0  0  0  0  0  0  0  0  0  0  0  0
    7.8637    2.0119    0.0000 H   0  0  0  0  0  0  0  0  0  0  0  0
    7.0666    2.0119    0.0000 H   0  0  0  0  0  0  0  0  0  0  0  0
    7.8637    8.1838    0.0000 H   0  0  0  0  0  0  0  0  0  0  0  0
    7.0666    8.1838    0.0000 H   0  0  0  0  0  0  0  0  0  0  0  0
    0.2269    1.0739    0.0000 H   0  0  0  0  0  0  0  0  0  0  0  0
    0.0000    0.2269    0.0000 H   0  0  0  0  0  0  0  0  0  0  0  0
    0.8469    0.0000    0.0000 H   0  0  0  0  0  0  0  0  0  0  0  0
    3.1720    3.9450    0.0000 H   0  0  0  0  0  0  0  0  0  0  0  0
    2.3250    4.1720    0.0000 H   0  0  0  0  0  0  0  0  0  0  0  0
    2.0981    3.3250    0.0000 H   0  0  0  0  0  0  0  0  0  0  0  0
    0.2269    7.2458    0.0000 H   0  0  0  0  0  0  0  0  0  0  0  0
    0.0000    6.3989    0.0000 H   0  0  0  0  0  0  0  0  0  0  0  0
    0.8469    6.1720    0.0000 H   0  0  0  0  0  0  0  0  0  0  0  0
    3.1720   10.1170    0.0000 H   0  0  0  0  0  0  0  0  0  0  0  0
    2.3250   10.3439    0.0000 H   0  0  0  0  0  0  0  0  0  0  0  0
    2.0981    9.4970    0.0000 H   0  0  0  0  0  0  0  0  0  0  0  0
    8.0212    0.5000    0.0000 H   0  0  0  0  0  0  0  0  0  0  0  0
    8.8681    0.7269    0.0000 H   0  0  0  0  0  0  0  0  0  0  0  0
    8.6412    1.5739    0.0000 H   0  0  0  0  0  0  0  0  0  0  0  0
    8.0212    6.6720    0.0000 H   0  0  0  0  0  0  0  0  0  0  0  0
    8.8681    6.8989    0.0000 H   0  0  0  0  0  0  0  0  0  0  0  0
    8.6412    7.7458    0.0000 H   0  0  0  0  0  0  0  0  0  0  0  0
  1  5  1  0  0  0  0
  1 13  1  0  0  0  0
  2 15  1  0  0  0  0
  2 21  1  0  0  0  0
  3 16  1  0  0  0  0
  3 22  1  0  0  0  0
  4  6  2  0  0  0  0
  5  8  1  0  0  0  0
  5  9  1  0  0  0  0
  5 12  2  0  0  0  0
  6  7  1  0  0  0  0
  6 10  1  0  0  0  0
  6 11  1  0  0  0  0
  7 14  1  0  0  0  0
  8 17  1  0  0  0  0
  9 18  1  0  0  0  0
 10 19  1  0  0  0  0
 11 20  1  0  0  0  0
 13 15  1  0  0  0  0
 13 29  1  0  0  0  0
 13 30  1  0  0  0  0
 14 16  1  0  0  0  0
 14 31  1  0  0  0  0
 14 32  1  0  0  0  0
 15 33  1  0  0  0  0
 15 34  1  0  0  0  0
 16 35  1  0  0  0  0
 16 36  1  0  0  0  0
 17 23  1  0  0  0  0
 17 37  1  0  0  0  0
 17 38  1  0  0  0  0
 18 24  1  0  0  0  0
 18 39  1  0  0  0  0
 18 40  1  0  0  0  0
 19 25  1  0  0  0  0
 19 41  1  0  0  0  0
 19 42  1  0  0  0  0
 20 26  1  0  0  0  0
 20 43  1  0  0  0  0
 20 44  1  0  0  0  0
 21 27  1  0  0  0  0
 21 45  1  0  0  0  0
 21 46  1  0  0  0  0
 22 28  1  0  0  0  0
 22 47  1  0  0  0  0
 22 48  1  0  0  0  0
 23 49  1  0  0  0  0
 23 50  1  0  0  0  0
 23 51  1  0  0  0  0
 24 52  1  0  0  0  0
 24 53  1  0  0  0  0
 24 54  1  0  0  0  0
 25 55  1  0  0  0  0
 25 56  1  0  0  0  0
 25 57  1  0  0  0  0
 26 58  1  0  0  0  0
 26 59  1  0  0  0  0
 26 60  1  0  0  0  0
 27 61  1  0  0  0  0
 27 62  1  0  0  0  0
 27 63  1  0  0  0  0
 28 64  1  0  0  0  0
 28 65  1  0  0  0  0
 28 66  1  0  0  0  0
M  END
> <PUBCHEM_COMPOUND_CID>
24722

> <PUBCHEM_COMPOUND_CANONICALIZED>
1

> <PUBCHEM_CACTVS_COMPLEXITY>
336

> <PUBCHEM_CACTVS_HBOND_ACCEPTOR>
10

> <PUBCHEM_CACTVS_HBOND_DONOR>
0

> <PUBCHEM_CACTVS_ROTATABLE_BOND>
18

> <PUBCHEM_CACTVS_SUBSKEYS>
AAADcfB4OANwAAAAAAAAAAAAAAAAAAAAAAAAAAAAAAAAAAAAAAAAGgQAACAAAACkwAKCAAAAARgAQAAAAIAAAAAAABAAAAAAAAAAAAAAAAAAAAAAAAAgAAAAAAAAAAAAAAAAAAAAAAAAAAAAAAAAAAAAAA==

> <PUBCHEM_IUPAC_OPENEYE_NAME>
diethoxy-(2-ethylsulfanylethoxy)-thioxo-lambda5-phosphane;1-diethoxyphosphorylsulfanyl-2-ethylsulfanyl-ethane

> <PUBCHEM_IUPAC_CAS_NAME>
diethoxy-[2-(ethylthio)ethoxy]-sulfanylidenephosphorane;1-(diethoxyphosphorylthio)-2-(ethylthio)ethane

> <PUBCHEM_IUPAC_NAME_MARKUP>
diethoxy-(2-ethylsulfanylethoxy)-sulfanylidene-&lambda;<SUP>5</SUP>-phosphane;1-diethoxyphosphorylsulfanyl-2-ethylsulfanylethane

> <PUBCHEM_IUPAC_NAME>
diethoxy-(2-ethylsulfanylethoxy)-sulfanylidene-lambda5-phosphane;1-diethoxyphosphorylsulfanyl-2-ethylsulfanylethane

> <PUBCHEM_IUPAC_SYSTEMATIC_NAME>
diethoxy-(2-ethylsulfanylethoxy)-sulfanylidene-lambda5-phosphane;1-diethoxyphosphorylsulfanyl-2-ethylsulfanyl-ethane

> <PUBCHEM_IUPAC_TRADITIONAL_NAME>
diethoxy-[2-(ethylthio)ethoxy]-thioxo-phosphorane;1-(diethoxyphosphorylthio)-2-(ethylthio)ethane

> <PUBCHEM_IUPAC_INCHI>
InChI=1S/2C8H19O3PS2/c1-4-10-12(9,11-5-2)14-8-7-13-6-3;1-4-9-12(13,10-5-2)11-7-8-14-6-3/h2*4-8H2,1-3H3

> <PUBCHEM_IUPAC_INCHIKEY>
FAXIJTUDSBIMHY-UHFFFAOYSA-N

> <PUBCHEM_EXACT_MASS>
516.10264762

> <PUBCHEM_MOLECULAR_FORMULA>
C16H38O6P2S4

> <PUBCHEM_MOLECULAR_WEIGHT>
516.7

> <PUBCHEM_OPENEYE_CAN_SMILES>
CCOP(=O)(OCC)SCCSCC.CCOP(=S)(OCC)OCCSCC

> <PUBCHEM_OPENEYE_ISO_SMILES>
CCOP(=O)(OCC)SCCSCC.CCOP(=S)(OCC)OCCSCC

> <PUBCHEM_CACTVS_TPSA>
171

> <PUBCHEM_MONOISOTOPIC_WEIGHT>
516.10264762

> <PUBCHEM_TOTAL_CHARGE>
0

> <PUBCHEM_HEAVY_ATOM_COUNT>
28

> <PUBCHEM_ATOM_DEF_STEREO_COUNT>
0

> <PUBCHEM_ATOM_UDEF_STEREO_COUNT>
0

> <PUBCHEM_BOND_DEF_STEREO_COUNT>
0

> <PUBCHEM_BOND_UDEF_STEREO_COUNT>
0

> <PUBCHEM_ISOTOPIC_ATOM_COUNT>
0

> <PUBCHEM_COMPONENT_COUNT>
2

> <PUBCHEM_CACTVS_TAUTO_COUNT>
1

> <PUBCHEM_COORDINATE_TYPE>
1
5
255

$$$$
