11650986
  -OEChem-03282216292D

153159  0     1  0  0  0  0  0999 V2000
   12.5383   11.7584    0.0000 O   0  0  0  0  0  0  0  0  0  0  0  0
   12.6317    4.4239    0.0000 O   0  0  0  0  0  0  0  0  0  0  0  0
   13.4250    3.8151    0.0000 O   0  0  0  0  0  0  0  0  0  0  0  0
   13.0232    7.3982    0.0000 O   0  0  0  0  0  0  0  0  0  0  0  0
   13.8258   10.0458    0.0000 O   0  0  0  0  0  0  0  0  0  0  0  0
   14.7930   11.8404    0.0000 O   0  0  0  0  0  0  0  0  0  0  0  0
   11.9055    7.7477    0.0000 O   0  0  0  0  0  0  0  0  0  0  0  0
    8.3312    6.3589    0.0000 O   0  0  0  0  0  0  0  0  0  0  0  0
    4.8671    8.3589    0.0000 O   0  0  0  0  0  0  0  0  0  0  0  0
    7.4651    7.8589    0.0000 O   0  0  0  0  0  0  0  0  0  0  0  0
    3.1350    8.3589    0.0000 O   0  0  0  0  0  0  0  0  0  0  0  0
    4.8671    6.3589    0.0000 O   0  0  0  0  0  0  0  0  0  0  0  0
    3.1350    5.3589    0.0000 O   0  0  0  0  0  0  0  0  0  0  0  0
    9.0798   17.9797    0.0000 O   0  0  0  0  0  0  0  0  0  0  0  0
    7.3477   17.9797    0.0000 O   0  0  0  0  0  0  0  0  0  0  0  0
    1.4030    6.3589    0.0000 N   0  0  0  0  0  0  0  0  0  0  0  0
   12.8344   10.1764    0.0000 C   0  0  1  0  0  0  0  0  0  0  0  0
   13.2600   11.0747    0.0000 C   0  0  1  0  0  0  0  0  0  0  0  0
   13.2170    9.2525    0.0000 C   0  0  1  0  0  0  0  0  0  0  0  0
   13.5555    4.8066    0.0000 C   0  0  2  0  0  0  0  0  0  0  0  0
   14.2455   11.0036    0.0000 C   0  0  1  0  0  0  0  0  0  0  0  0
   12.8927    6.4068    0.0000 C   0  0  2  0  0  0  0  0  0  0  0  0
   11.8429   10.3069    0.0000 C   0  0  0  0  0  0  0  0  0  0  0  0
   13.6861    5.7980    0.0000 C   0  0  0  0  0  0  0  0  0  0  0  0
   11.9688    6.0241    0.0000 C   0  0  0  0  0  0  0  0  0  0  0  0
   11.8383    5.0326    0.0000 C   0  0  1  0  0  0  0  0  0  0  0  0
   14.2184    3.2064    0.0000 C   0  0  1  0  0  0  0  0  0  0  0  0
   14.2048    9.2770    0.0000 C   0  0  0  0  0  0  0  0  0  0  0  0
   11.6643   11.2848    0.0000 C   0  0  0  0  0  0  0  0  0  0  0  0
   14.7051   10.1290    0.0000 C   0  0  0  0  0  0  0  0  0  0  0  0
   15.1422    3.5890    0.0000 C   0  0  2  0  0  0  0  0  0  0  0  0
   12.6083    8.4591    0.0000 C   0  0  0  0  0  0  0  0  0  0  0  0
   14.0878    2.2149    0.0000 C   0  0  2  0  0  0  0  0  0  0  0  0
   14.4794    5.1892    0.0000 C   0  0  0  0  0  0  0  0  0  0  0  0
   10.9144    4.6499    0.0000 C   0  0  0  0  0  0  0  0  0  0  0  0
   15.2728    4.5805    0.0000 C   0  0  0  0  0  0  0  0  0  0  0  0
   11.2341    9.5135    0.0000 C   0  0  0  0  0  0  0  0  0  0  0  0
   15.7048   10.1055    0.0000 C   0  0  0  0  0  0  0  0  0  0  0  0
   14.8812    1.6061    0.0000 C   0  0  0  0  0  0  0  0  0  0  0  0
   15.9356    2.9803    0.0000 C   0  0  0  0  0  0  0  0  0  0  0  0
   13.1640    1.8322    0.0000 C   0  0  0  0  0  0  0  0  0  0  0  0
   10.1211    5.2587    0.0000 C   0  0  0  0  0  0  0  0  0  0  0  0
    9.1972    6.8589    0.0000 C   0  0  1  0  0  0  0  0  0  0  0  0
    5.7331    7.8589    0.0000 C   0  0  2  0  0  0  0  0  0  0  0  0
    5.7331    6.8589    0.0000 C   0  0  2  0  0  0  0  0  0  0  0  0
    9.0667    7.8504    0.0000 C   0  0  2  0  0  0  0  0  0  0  0  0
    9.9905    6.2502    0.0000 C   0  0  0  0  0  0  0  0  0  0  0  0
    7.4651    6.8589    0.0000 C   0  0  2  0  0  0  0  0  0  0  0  0
    6.5991    6.3589    0.0000 C   0  0  0  0  0  0  0  0  0  0  0  0
   10.2427    9.3830    0.0000 C   0  0  0  0  0  0  0  0  0  0  0  0
    6.5991    8.3589    0.0000 C   0  0  2  0  0  0  0  0  0  0  0  0
    4.0010    7.8589    0.0000 C   0  0  2  0  0  0  0  0  0  0  0  0
    2.2690    6.8589    0.0000 C   0  0  2  0  0  0  0  0  0  0  0  0
    3.1350    6.3589    0.0000 C   0  0  2  0  0  0  0  0  0  0  0  0
    4.0010    6.8589    0.0000 C   0  0  0  0  0  0  0  0  0  0  0  0
    9.8600    8.4591    0.0000 C   0  0  0  0  0  0  0  0  0  0  0  0
    2.2690    7.8589    0.0000 C   0  0  2  0  0  0  0  0  0  0  0  0
   14.7507    0.6147    0.0000 C   0  0  0  0  0  0  0  0  0  0  0  0
    8.1428    8.2330    0.0000 C   0  0  0  0  0  0  0  0  0  0  0  0
   10.8566    6.7502    0.0000 C   0  0  0  0  0  0  0  0  0  0  0  0
    6.5991    9.3589    0.0000 C   0  0  0  0  0  0  0  0  0  0  0  0
    1.4030    8.3589    0.0000 C   0  0  0  0  0  0  0  0  0  0  0  0
    4.8671    5.3589    0.0000 C   0  0  0  0  0  0  0  0  0  0  0  0
    0.5369    6.8589    0.0000 C   0  0  0  0  0  0  0  0  0  0  0  0
    4.0010    4.8589    0.0000 C   0  0  0  0  0  0  0  0  0  0  0  0
    8.2137   16.4797    0.0000 C   0  0  0  0  0  0  0  0  0  0  0  0
    9.0798   15.9797    0.0000 C   0  0  0  0  0  0  0  0  0  0  0  0
    7.3477   15.9797    0.0000 C   0  0  0  0  0  0  0  0  0  0  0  0
    9.0798   14.9797    0.0000 C   0  0  0  0  0  0  0  0  0  0  0  0
    7.3477   14.9797    0.0000 C   0  0  0  0  0  0  0  0  0  0  0  0
    8.2137   14.4797    0.0000 C   0  0  0  0  0  0  0  0  0  0  0  0
    8.2137   17.4797    0.0000 C   0  0  0  0  0  0  0  0  0  0  0  0
   13.6028   11.8525    0.0000 H   0  0  0  0  0  0  0  0  0  0  0  0
   13.5423    8.4672    0.0000 H   0  0  0  0  0  0  0  0  0  0  0  0
   13.9704   11.5593    0.0000 H   0  0  0  0  0  0  0  0  0  0  0  0
   13.6780    6.7320    0.0000 H   0  0  0  0  0  0  0  0  0  0  0  0
   14.2774    5.6116    0.0000 H   0  0  0  0  0  0  0  0  0  0  0  0
   13.9723    6.3479    0.0000 H   0  0  0  0  0  0  0  0  0  0  0  0
   11.8346    6.6294    0.0000 H   0  0  0  0  0  0  0  0  0  0  0  0
   11.3494    5.9970    0.0000 H   0  0  0  0  0  0  0  0  0  0  0  0
   11.7274    4.1899    0.0000 H   0  0  0  0  0  0  0  0  0  0  0  0
   14.8927    2.6889    0.0000 H   0  0  0  0  0  0  0  0  0  0  0  0
   14.5194    8.7428    0.0000 H   0  0  0  0  0  0  0  0  0  0  0  0
   11.4278   11.8579    0.0000 H   0  0  0  0  0  0  0  0  0  0  0  0
   11.0695   11.1099    0.0000 H   0  0  0  0  0  0  0  0  0  0  0  0
   15.7150    3.8263    0.0000 H   0  0  0  0  0  0  0  0  0  0  0  0
   13.5960    2.5923    0.0000 H   0  0  0  0  0  0  0  0  0  0  0  0
   14.5603    5.8039    0.0000 H   0  0  0  0  0  0  0  0  0  0  0  0
   10.4573    4.2311    0.0000 H   0  0  0  0  0  0  0  0  0  0  0  0
   11.2475    4.1270    0.0000 H   0  0  0  0  0  0  0  0  0  0  0  0
   13.6916   10.6511    0.0000 H   0  0  0  0  0  0  0  0  0  0  0  0
   15.8456    4.8177    0.0000 H   0  0  0  0  0  0  0  0  0  0  0  0
   11.5441    8.9766    0.0000 H   0  0  0  0  0  0  0  0  0  0  0  0
   15.6902    9.4856    0.0000 H   0  0  0  0  0  0  0  0  0  0  0  0
   16.3247   10.0909    0.0000 H   0  0  0  0  0  0  0  0  0  0  0  0
   15.7194   10.7253    0.0000 H   0  0  0  0  0  0  0  0  0  0  0  0
   15.4725    1.4197    0.0000 H   0  0  0  0  0  0  0  0  0  0  0  0
   15.1675    2.1561    0.0000 H   0  0  0  0  0  0  0  0  0  0  0  0
   15.5582    2.4884    0.0000 H   0  0  0  0  0  0  0  0  0  0  0  0
   16.4275    2.6028    0.0000 H   0  0  0  0  0  0  0  0  0  0  0  0
   16.3130    3.4722    0.0000 H   0  0  0  0  0  0  0  0  0  0  0  0
   15.4121   11.8058    0.0000 H   0  0  0  0  0  0  0  0  0  0  0  0
   12.9267    2.4050    0.0000 H   0  0  0  0  0  0  0  0  0  0  0  0
   12.5912    1.5950    0.0000 H   0  0  0  0  0  0  0  0  0  0  0  0
   13.4012    1.2594    0.0000 H   0  0  0  0  0  0  0  0  0  0  0  0
    9.5841    4.9487    0.0000 H   0  0  0  0  0  0  0  0  0  0  0  0
    9.1566    6.2402    0.0000 H   0  0  0  0  0  0  0  0  0  0  0  0
    5.1962    7.5489    0.0000 H   0  0  0  0  0  0  0  0  0  0  0  0
    6.2700    6.5489    0.0000 H   0  0  0  0  0  0  0  0  0  0  0  0
    8.5748    7.4729    0.0000 H   0  0  0  0  0  0  0  0  0  0  0  0
    7.4651    6.2389    0.0000 H   0  0  0  0  0  0  0  0  0  0  0  0
    6.2006    5.8840    0.0000 H   0  0  0  0  0  0  0  0  0  0  0  0
    6.9976    5.8840    0.0000 H   0  0  0  0  0  0  0  0  0  0  0  0
    7.1360    8.6689    0.0000 H   0  0  0  0  0  0  0  0  0  0  0  0
    9.8653    9.8749    0.0000 H   0  0  0  0  0  0  0  0  0  0  0  0
    4.0010    8.4789    0.0000 H   0  0  0  0  0  0  0  0  0  0  0  0
    2.2690    6.2389    0.0000 H   0  0  0  0  0  0  0  0  0  0  0  0
    3.6720    6.0489    0.0000 H   0  0  0  0  0  0  0  0  0  0  0  0
    4.2131    6.2763    0.0000 H   0  0  0  0  0  0  0  0  0  0  0  0
    4.6116    6.9666    0.0000 H   0  0  0  0  0  0  0  0  0  0  0  0
   10.3519    8.0817    0.0000 H   0  0  0  0  0  0  0  0  0  0  0  0
    2.2690    8.4789    0.0000 H   0  0  0  0  0  0  0  0  0  0  0  0
   14.1360    0.6956    0.0000 H   0  0  0  0  0  0  0  0  0  0  0  0
   14.6697    0.0000    0.0000 H   0  0  0  0  0  0  0  0  0  0  0  0
   15.3654    0.5338    0.0000 H   0  0  0  0  0  0  0  0  0  0  0  0
    8.3800    8.8058    0.0000 H   0  0  0  0  0  0  0  0  0  0  0  0
    7.5700    8.4703    0.0000 H   0  0  0  0  0  0  0  0  0  0  0  0
    7.9055    7.6602    0.0000 H   0  0  0  0  0  0  0  0  0  0  0  0
   11.1666    6.2132    0.0000 H   0  0  0  0  0  0  0  0  0  0  0  0
   11.3935    7.0602    0.0000 H   0  0  0  0  0  0  0  0  0  0  0  0
   10.5466    7.2871    0.0000 H   0  0  0  0  0  0  0  0  0  0  0  0
    7.2191    9.3589    0.0000 H   0  0  0  0  0  0  0  0  0  0  0  0
    6.5991    9.9789    0.0000 H   0  0  0  0  0  0  0  0  0  0  0  0
    5.9791    9.3589    0.0000 H   0  0  0  0  0  0  0  0  0  0  0  0
    1.4030    5.7389    0.0000 H   0  0  0  0  0  0  0  0  0  0  0  0
    1.7130    8.8958    0.0000 H   0  0  0  0  0  0  0  0  0  0  0  0
    0.8660    8.6689    0.0000 H   0  0  0  0  0  0  0  0  0  0  0  0
    1.0930    7.8220    0.0000 H   0  0  0  0  0  0  0  0  0  0  0  0
    4.2471    5.3589    0.0000 H   0  0  0  0  0  0  0  0  0  0  0  0
    4.8671    4.7389    0.0000 H   0  0  0  0  0  0  0  0  0  0  0  0
    5.4871    5.3589    0.0000 H   0  0  0  0  0  0  0  0  0  0  0  0
    0.8469    7.3958    0.0000 H   0  0  0  0  0  0  0  0  0  0  0  0
    0.0000    7.1689    0.0000 H   0  0  0  0  0  0  0  0  0  0  0  0
    0.2269    6.3220    0.0000 H   0  0  0  0  0  0  0  0  0  0  0  0
    3.6910    4.3220    0.0000 H   0  0  0  0  0  0  0  0  0  0  0  0
    4.5380    4.5489    0.0000 H   0  0  0  0  0  0  0  0  0  0  0  0
    4.3110    5.3958    0.0000 H   0  0  0  0  0  0  0  0  0  0  0  0
    9.6167   16.2897    0.0000 H   0  0  0  0  0  0  0  0  0  0  0  0
    6.8108   16.2897    0.0000 H   0  0  0  0  0  0  0  0  0  0  0  0
    9.6167   14.6697    0.0000 H   0  0  0  0  0  0  0  0  0  0  0  0
    6.8108   14.6697    0.0000 H   0  0  0  0  0  0  0  0  0  0  0  0
    8.2137   13.8597    0.0000 H   0  0  0  0  0  0  0  0  0  0  0  0
    9.0798   18.5997    0.0000 H   0  0  0  0  0  0  0  0  0  0  0  0
  1 18  1  0  0  0  0
  1 29  1  0  0  0  0
  2 20  1  0  0  0  0
  2 26  1  0  0  0  0
 20  3  1  1  0  0  0
  3 27  1  0  0  0  0
  4 22  1  0  0  0  0
  4 32  1  0  0  0  0
 17  5  1  1  0  0  0
  5 91  1  0  0  0  0
 21  6  1  6  0  0  0
  6102  1  0  0  0  0
  7 32  2  0  0  0  0
 43  8  1  1  0  0  0
 48  8  1  1  0  0  0
 44  9  1  1  0  0  0
 52  9  1  1  0  0  0
 10 48  1  0  0  0  0
 10 51  1  0  0  0  0
 11 52  1  0  0  0  0
 11 57  1  0  0  0  0
 45 12  1  6  0  0  0
 12 63  1  0  0  0  0
 54 13  1  6  0  0  0
 13 65  1  0  0  0  0
 14 72  1  0  0  0  0
 14153  1  0  0  0  0
 15 72  2  0  0  0  0
 53 16  1  1  0  0  0
 16 64  1  0  0  0  0
 16135  1  0  0  0  0
 17 18  1  0  0  0  0
 17 19  1  0  0  0  0
 17 23  1  0  0  0  0
 18 21  1  0  0  0  0
 18 73  1  1  0  0  0
 19 28  1  0  0  0  0
 19 32  1  0  0  0  0
 19 74  1  6  0  0  0
 20 24  1  0  0  0  0
 20 34  1  0  0  0  0
 21 30  1  0  0  0  0
 21 75  1  0  0  0  0
 22 24  1  0  0  0  0
 22 25  1  0  0  0  0
 22 76  1  1  0  0  0
 23 29  1  0  0  0  0
 23 37  2  0  0  0  0
 24 77  1  0  0  0  0
 24 78  1  0  0  0  0
 25 26  1  0  0  0  0
 25 79  1  0  0  0  0
 25 80  1  0  0  0  0
 26 35  1  0  0  0  0
 26 81  1  1  0  0  0
 27 31  1  0  0  0  0
 27 33  1  0  0  0  0
 27 82  1  6  0  0  0
 28 30  2  0  0  0  0
 28 83  1  0  0  0  0
 29 84  1  0  0  0  0
 29 85  1  0  0  0  0
 30 38  1  0  0  0  0
 31 36  1  0  0  0  0
 31 40  1  6  0  0  0
 31 86  1  0  0  0  0
 33 39  1  0  0  0  0
 33 41  1  6  0  0  0
 33 87  1  0  0  0  0
 34 36  2  0  0  0  0
 34 88  1  0  0  0  0
 35 42  1  0  0  0  0
 35 89  1  0  0  0  0
 35 90  1  0  0  0  0
 36 92  1  0  0  0  0
 37 50  1  0  0  0  0
 37 93  1  0  0  0  0
 38 94  1  0  0  0  0
 38 95  1  0  0  0  0
 38 96  1  0  0  0  0
 39 58  1  0  0  0  0
 39 97  1  0  0  0  0
 39 98  1  0  0  0  0
 40 99  1  0  0  0  0
 40100  1  0  0  0  0
 40101  1  0  0  0  0
 41103  1  0  0  0  0
 41104  1  0  0  0  0
 41105  1  0  0  0  0
 42 47  2  0  0  0  0
 42106  1  0  0  0  0
 43 46  1  0  0  0  0
 43 47  1  0  0  0  0
 43107  1  0  0  0  0
 44 45  1  0  0  0  0
 44 51  1  0  0  0  0
 44108  1  0  0  0  0
 45 49  1  0  0  0  0
 45109  1  0  0  0  0
 46 56  1  0  0  0  0
 46 59  1  1  0  0  0
 46110  1  0  0  0  0
 47 60  1  0  0  0  0
 48 49  1  0  0  0  0
 48111  1  0  0  0  0
 49112  1  0  0  0  0
 49113  1  0  0  0  0
 50 56  2  0  0  0  0
 50115  1  0  0  0  0
 51 61  1  6  0  0  0
 51114  1  0  0  0  0
 52 55  1  0  0  0  0
 52116  1  0  0  0  0
 53 54  1  0  0  0  0
 53 57  1  0  0  0  0
 53117  1  0  0  0  0
 54 55  1  0  0  0  0
 54118  1  0  0  0  0
 55119  1  0  0  0  0
 55120  1  0  0  0  0
 56121  1  0  0  0  0
 57 62  1  6  0  0  0
 57122  1  0  0  0  0
 58123  1  0  0  0  0
 58124  1  0  0  0  0
 58125  1  0  0  0  0
 59126  1  0  0  0  0
 59127  1  0  0  0  0
 59128  1  0  0  0  0
 60129  1  0  0  0  0
 60130  1  0  0  0  0
 60131  1  0  0  0  0
 61132  1  0  0  0  0
 61133  1  0  0  0  0
 61134  1  0  0  0  0
 62136  1  0  0  0  0
 62137  1  0  0  0  0
 62138  1  0  0  0  0
 63139  1  0  0  0  0
 63140  1  0  0  0  0
 63141  1  0  0  0  0
 64142  1  0  0  0  0
 64143  1  0  0  0  0
 64144  1  0  0  0  0
 65145  1  0  0  0  0
 65146  1  0  0  0  0
 65147  1  0  0  0  0
 66 67  2  0  0  0  0
 66 68  1  0  0  0  0
 66 72  1  0  0  0  0
 67 69  1  0  0  0  0
 67148  1  0  0  0  0
 68 70  2  0  0  0  0
 68149  1  0  0  0  0
 69 71  2  0  0  0  0
 69150  1  0  0  0  0
 70 71  1  0  0  0  0
 70151  1  0  0  0  0
 71152  1  0  0  0  0
M  END
> <PUBCHEM_COMPOUND_CID>
11650986

> <PUBCHEM_COMPOUND_CANONICALIZED>
1

> <PUBCHEM_CACTVS_COMPLEXITY>
1850

> <PUBCHEM_CACTVS_HBOND_ACCEPTOR>
16

> <PUBCHEM_CACTVS_HBOND_DONOR>
4

> <PUBCHEM_CACTVS_ROTATABLE_BOND>
10

> <PUBCHEM_CACTVS_SUBSKEYS>
AAADcfB+PAAAAAAAAAAAAAAAAAAAASAAAAA0SJECAAAAAEABAAAAHgAQCAAADXzxmAcyCILABgCIAiDSCAACAAAkAAAIiIEICMgbNjaAtRCncQAl8AEfuYfq7OzOgAAAAAAAAAAAAAAAAAAAAAAAAAAAAA==

> <PUBCHEM_IUPAC_OPENEYE_NAME>
benzoic acid;(1'R,2R,3S,4'S,6S,8'R,10'E,12'S,13'S,14'E,16'E,20'R,21'R,24'S)-21',24'-dihydroxy-12'-[(2R,4S,5S,6S)-4-methoxy-5-[(2S,4S,5S,6S)-4-methoxy-6-methyl-5-(methylamino)tetrahydropyran-2-yl]oxy-6-methyl-tetrahydropyran-2-yl]oxy-3,11',13',22'-tetramethyl-2-[(1S)-1-methylpropyl]spiro[2,3-dihydropyran-6,6'-3,7,19-trioxatetracyclo[15.6.1.14,8.020,24]pentacosa-10,14,16,22-tetraene]-2'-one

> <PUBCHEM_IUPAC_CAS_NAME>
benzoic acid;(1'R,2R,3S,4'S,6S,8'R,10'E,12'S,13'S,14'E,16'E,20'R,21'R,24'S)-2-[(2S)-butan-2-yl]-21',24'-dihydroxy-12'-[[(2R,4S,5S,6S)-4-methoxy-5-[[(2S,4S,5S,6S)-4-methoxy-6-methyl-5-(methylamino)-2-oxanyl]oxy]-6-methyl-2-oxanyl]oxy]-3,11',13',22'-tetramethyl-2'-spiro[2,3-dihydropyran-6,6'-3,7,19-trioxatetracyclo[15.6.1.14,8.020,24]pentacosa-10,14,16,22-tetraene]one

> <PUBCHEM_IUPAC_NAME_MARKUP>
benzoic acid;(1&apos;<I>R</I>,2<I>R</I>,3<I>S</I>,4&apos;<I>S</I>,6<I>S</I>,8&apos;<I>R</I>,10&apos;<I>E</I>,12&apos;<I>S</I>,13&apos;<I>S</I>,14&apos;<I>E</I>,16&apos;<I>E</I>,20&apos;<I>R</I>,21&apos;<I>R</I>,24&apos;<I>S</I>)-2-[(2<I>S</I>)-butan-2-yl]-21&apos;,24&apos;-dihydroxy-12&apos;-[(2<I>R</I>,4<I>S</I>,5<I>S</I>,6<I>S</I>)-4-methoxy-5-[(2<I>S</I>,4<I>S</I>,5<I>S</I>,6<I>S</I>)-4-methoxy-6-methyl-5-(methylamino)oxan-2-yl]oxy-6-methyloxan-2-yl]oxy-3,11&apos;,13&apos;,22&apos;-tetramethylspiro[2,3-dihydropyran-6,6&apos;-3,7,19-trioxatetracyclo[15.6.1.1<SUP>4,8</SUP>.0<SUP>20,24</SUP>]pentacosa-10,14,16,22-tetraene]-2&apos;-one

> <PUBCHEM_IUPAC_NAME>
benzoic acid;(1'R,2R,3S,4'S,6S,8'R,10'E,12'S,13'S,14'E,16'E,20'R,21'R,24'S)-2-[(2S)-butan-2-yl]-21',24'-dihydroxy-12'-[(2R,4S,5S,6S)-4-methoxy-5-[(2S,4S,5S,6S)-4-methoxy-6-methyl-5-(methylamino)oxan-2-yl]oxy-6-methyloxan-2-yl]oxy-3,11',13',22'-tetramethylspiro[2,3-dihydropyran-6,6'-3,7,19-trioxatetracyclo[15.6.1.14,8.020,24]pentacosa-10,14,16,22-tetraene]-2'-one

> <PUBCHEM_IUPAC_SYSTEMATIC_NAME>
benzoic acid;(1'R,2R,3S,4'S,6S,8'R,10'E,12'S,13'S,14'E,16'E,20'R,21'R,24'S)-2-[(2S)-butan-2-yl]-12'-[(2R,4S,5S,6S)-4-methoxy-5-[(2S,4S,5S,6S)-4-methoxy-6-methyl-5-(methylamino)oxan-2-yl]oxy-6-methyl-oxan-2-yl]oxy-3,11',13',22'-tetramethyl-21',24'-bis(oxidanyl)spiro[2,3-dihydropyran-6,6'-3,7,19-trioxatetracyclo[15.6.1.14,8.020,24]pentacosa-10,14,16,22-tetraene]-2'-one

> <PUBCHEM_IUPAC_TRADITIONAL_NAME>
benzoic acid;(1'R,2R,3S,4'S,6S,8'R,10'E,12'S,13'S,14'E,16'E,20'R,21'R,24'S)-21',24'-dihydroxy-12'-[(2R,4S,5S,6S)-4-methoxy-5-[(2S,4S,5S,6S)-4-methoxy-6-methyl-5-(methylamino)tetrahydropyran-2-yl]oxy-6-methyl-tetrahydropyran-2-yl]oxy-3,11',13',22'-tetramethyl-2-[(1S)-1-methylpropyl]spiro[2,3-dihydropyran-6,6'-3,7,19-trioxatetracyclo[15.6.1.14,8.020,24]pentacosa-10,14,16,22-tetraene]-2'-one

> <PUBCHEM_IUPAC_INCHI>
InChI=1S/C49H75NO13.C7H6O2/c1-12-26(2)44-29(5)18-19-48(63-44)24-35-21-34(62-48)17-16-28(4)43(27(3)14-13-15-33-25-56-46-42(51)30(6)20-36(47(52)59-35)49(33,46)53)60-40-23-38(55-11)45(32(8)58-40)61-39-22-37(54-10)41(50-9)31(7)57-39;8-7(9)6-4-2-1-3-5-6/h13-16,18-20,26-27,29,31-32,34-46,50-51,53H,12,17,21-25H2,1-11H3;1-5H,(H,8,9)/b14-13+,28-16+,33-15+;/t26-,27-,29-,31-,32-,34+,35-,36-,37-,38-,39-,40-,41-,42+,43-,44+,45-,46+,48+,49+;/m0./s1

> <PUBCHEM_IUPAC_INCHIKEY>
GCKZANITAMOIAR-XWVCPFKXSA-N

> <PUBCHEM_EXACT_MASS>
1007.56062088

> <PUBCHEM_MOLECULAR_FORMULA>
C56H81NO15

> <PUBCHEM_MOLECULAR_WEIGHT>
1008.2

> <PUBCHEM_OPENEYE_CAN_SMILES>
CCC(C)C1C(C=CC2(O1)CC3CC(O2)CC=C(C(C(C=CC=C4COC5C4(C(C=C(C5O)C)C(=O)O3)O)C)OC6CC(C(C(O6)C)OC7CC(C(C(O7)C)NC)OC)OC)C)C.C1=CC=C(C=C1)C(=O)O

> <PUBCHEM_OPENEYE_ISO_SMILES>
CC[C@H](C)[C@@H]1[C@H](C=C[C@@]2(O1)C[C@@H]3C[C@H](O2)C/C=C(/[C@H]([C@H](/C=C/C=C/4\CO[C@H]5[C@@]4([C@@H](C=C([C@H]5O)C)C(=O)O3)O)C)O[C@H]6C[C@@H]([C@H]([C@@H](O6)C)O[C@H]7C[C@@H]([C@H]([C@@H](O7)C)NC)OC)OC)\C)C.C1=CC=C(C=C1)C(=O)O

> <PUBCHEM_CACTVS_TPSA>
199

> <PUBCHEM_MONOISOTOPIC_WEIGHT>
1007.56062088

> <PUBCHEM_TOTAL_CHARGE>
0

> <PUBCHEM_HEAVY_ATOM_COUNT>
72

> <PUBCHEM_ATOM_DEF_STEREO_COUNT>
20

> <PUBCHEM_ATOM_UDEF_STEREO_COUNT>
0

> <PUBCHEM_BOND_DEF_STEREO_COUNT>
3

> <PUBCHEM_BOND_UDEF_STEREO_COUNT>
0

> <PUBCHEM_ISOTOPIC_ATOM_COUNT>
0

> <PUBCHEM_COMPONENT_COUNT>
2

> <PUBCHEM_CACTVS_TAUTO_COUNT>
1

> <PUBCHEM_COORDINATE_TYPE>
1
5
255

> <PUBCHEM_BONDANNOTATIONS>
45  12  6
54  13  6
53  16  5
18  73  5
19  74  6
22  76  5
26  81  5
27  82  6
20  3  5
31  40  6
33  41  6
46  59  5
17  5  5
51  61  6
57  62  6
21  6  6
66  67  8
66  68  8
67  69  8
68  70  8
69  71  8
70  71  8
43  8  5
48  8  5
44  9  5
52  9  5

$$$$
