254761708
  -OEChem-03302211082D

 65 71  0     1  0  0  0  0  0999 V2000
    4.3085    1.6591    0.0000 C   0  0  3  0  0  0  0  0  0  0  0  0
    4.3085    0.8205    0.0000 C   0  0  0  0  0  0  0  0  0  0  0  0
    3.6037    2.0706    0.0000 O   0  0  0  0  0  0  0  0  0  0  0  0
    4.3085    2.4925    0.0000 O   0  0  0  0  0  0  0  0  0  0  0  0
    5.0235    1.2322    0.0000 C   0  0  0  0  0  0  0  0  0  0  0  0
    3.6037    0.4142    0.0000 C   0  0  3  0  0  0  0  0  0  0  0  0
    2.8886    1.6591    0.0000 C   0  0  3  0  0  0  0  0  0  0  0  0
    5.0235    2.9041    0.0000 C   0  0  3  0  0  0  0  0  0  0  0  0
    5.7387    1.6591    0.0000 C   0  0  0  0  0  0  0  0  0  0  0  0
    2.8886    0.8359    0.0000 C   0  0  0  0  0  0  0  0  0  0  0  0
    3.6037   -0.4244    0.0000 O   0  0  0  0  0  0  0  0  0  0  0  0
    2.1735    2.0706    0.0000 C   0  0  0  0  0  0  0  0  0  0  0  0
    5.7387    2.4925    0.0000 C   0  0  3  0  0  0  0  0  0  0  0  0
    5.0235    3.7117    0.0000 C   0  0  3  0  0  0  0  0  0  0  0  0
    2.8886   -0.8359    0.0000 C   0  0  0  0  0  0  0  0  0  0  0  0
    1.4585    1.6591    0.0000 C   0  0  0  0  0  0  0  0  0  0  0  0
    6.4280    2.9041    0.0000 C   0  0  0  0  0  0  0  0  0  0  0  0
    4.3085    4.1078    0.0000 C   0  0  0  0  0  0  0  0  0  0  0  0
    5.7232    4.1233    0.0000 C   0  0  0  0  0  0  0  0  0  0  0  0
    2.8886   -1.6539    0.0000 C   0  0  3  0  0  0  0  0  0  0  0  0
    2.1735   -0.4089    0.0000 O   0  0  0  0  0  0  0  0  0  0  0  0
    0.7434    2.0706    0.0000 C   0  0  0  0  0  0  0  0  0  0  0  0
    3.6037    3.7014    0.0000 C   0  0  0  0  0  0  0  0  0  0  0  0
    2.1735   -2.0655    0.0000 C   0  0  3  0  0  0  0  0  0  0  0  0
    3.6037   -2.0655    0.0000 C   0  0  0  0  0  0  0  0  0  0  0  0
    0.0386    1.6591    0.0000 C   0  0  3  0  0  0  0  0  0  0  0  0
    0.7434    2.9041    0.0000 C   0  0  0  0  0  0  0  0  0  0  0  0
    2.1735   -2.9041    0.0000 C   0  0  3  0  0  0  0  0  0  0  0  0
    1.4585   -1.6539    0.0000 C   0  0  0  0  0  0  0  0  0  0  0  0
    2.4257   -1.2732    0.0000 O   0  0  0  0  0  0  0  0  0  0  0  0
    3.6037   -2.9041    0.0000 C   0  0  0  0  0  0  0  0  0  0  0  0
   -0.6764    2.0706    0.0000 O   0  0  0  0  0  0  0  0  0  0  0  0
    0.0386    0.8359    0.0000 C   0  0  3  0  0  0  0  0  0  0  0  0
    2.8886   -3.3002    0.0000 C   0  0  3  0  0  0  0  0  0  0  0  0
    1.4430   -3.2847    0.0000 C   0  0  0  0  0  0  0  0  0  0  0  0
    0.7434   -2.0655    0.0000 C   0  0  0  0  0  0  0  0  0  0  0  0
    1.4585   -0.8462    0.0000 C   0  0  0  0  0  0  0  0  0  0  0  0
    4.3085   -3.3002    0.0000 C   0  0  0  0  0  0  0  0  0  0  0  0
   -1.4327    1.6591    0.0000 C   0  0  3  0  0  0  0  0  0  0  0  0
    0.7434    0.4142    0.0000 C   0  0  0  0  0  0  0  0  0  0  0  0
   -0.6919    0.4142    0.0000 C   0  0  0  0  0  0  0  0  0  0  0  0
    2.8886   -4.1233    0.0000 O   0  0  0  0  0  0  0  0  0  0  0  0
    0.7434   -2.9041    0.0000 O   0  0  0  0  0  0  0  0  0  0  0  0
    0.7434   -0.4089    0.0000 C   0  0  0  0  0  0  0  0  0  0  0  0
   -2.1376    2.0552    0.0000 C   0  0  0  0  0  0  0  0  0  0  0  0
   -1.4327    0.8359    0.0000 O   0  0  0  0  0  0  0  0  0  0  0  0
   -2.8783    1.6591    0.0000 C   0  0  3  0  0  0  0  0  0  0  0  0
   -2.1376    0.4142    0.0000 C   0  0  3  0  0  0  0  0  0  0  0  0
   -2.8783    0.8359    0.0000 C   0  0  3  0  0  0  0  0  0  0  0  0
   -3.5934    2.0706    0.0000 O   0  0  0  0  0  0  0  0  0  0  0  0
   -2.1477   -0.4244    0.0000 C   0  0  0  0  0  0  0  0  0  0  0  0
   -3.5934    0.4142    0.0000 O   0  0  0  0  0  0  0  0  0  0  0  0
   -3.5780    2.8886    0.0000 C   0  0  0  0  0  0  0  0  0  0  0  0
   -4.2828    0.8359    0.0000 C   0  0  3  0  0  0  0  0  0  0  0  0
   -5.0132    0.4142    0.0000 C   0  0  0  0  0  0  0  0  0  0  0  0
   -4.2828    1.6591    0.0000 O   0  0  0  0  0  0  0  0  0  0  0  0
   -5.7283    0.8359    0.0000 C   0  0  3  0  0  0  0  0  0  0  0  0
   -5.0132    2.0706    0.0000 C   0  0  3  0  0  0  0  0  0  0  0  0
   -5.7283    1.6591    0.0000 C   0  0  3  0  0  0  0  0  0  0  0  0
   -6.4280    0.4244    0.0000 O   0  0  0  0  0  0  0  0  0  0  0  0
   -4.9979    2.8886    0.0000 C   0  0  0  0  0  0  0  0  0  0  0  0
   -6.4280    2.0809    0.0000 O   0  0  0  0  0  0  0  0  0  0  0  0
   -6.4280   -0.3986    0.0000 C   0  0  0  0  0  0  0  0  0  0  0  0
    5.7644    3.0378    0.0000 H   0  0  0  0  0  0  0  0  0  0  0  0
    2.3433   -3.6963    0.0000 H   0  0  0  0  0  0  0  0  0  0  0  0
  1  2  1  0  0  0  0
  1  3  1  0  0  0  0
  1  4  1  0  0  0  0
  1  5  1  0  0  0  0
  2  6  1  0  0  0  0
  3  7  1  0  0  0  0
  4  8  1  0  0  0  0
  5  9  2  0  0  0  0
  6 10  1  0  0  0  0
  6 11  1  1  0  0  0
  7 12  1  1  0  0  0
  7 10  1  0  0  0  0
  8 13  1  0  0  0  0
  8 14  1  0  0  0  0
  8 64  1  1  0  0  0
  9 13  1  0  0  0  0
 11 15  1  0  0  0  0
 12 16  1  0  0  0  0
 13 17  1  1  0  0  0
 14 18  1  0  0  0  0
 14 19  1  6  0  0  0
 20 15  1  6  0  0  0
 15 21  2  0  0  0  0
 16 22  2  0  0  0  0
 18 23  1  0  0  0  0
 20 24  1  0  0  0  0
 20 25  1  0  0  0  0
 22 26  1  0  0  0  0
 22 27  1  0  0  0  0
 24 28  1  0  0  0  0
 24 29  1  0  0  0  0
 24 30  1  6  0  0  0
 25 31  2  0  0  0  0
 26 32  1  6  0  0  0
 26 33  1  0  0  0  0
 28 34  1  0  0  0  0
 28 35  1  0  0  0  0
 28 65  1  6  0  0  0
 29 36  1  0  0  0  0
 29 37  2  0  0  0  0
 31 38  1  0  0  0  0
 31 34  1  0  0  0  0
 39 32  1  6  0  0  0
 33 40  1  0  0  0  0
 33 41  1  6  0  0  0
 34 42  1  1  0  0  0
 35 43  1  0  0  0  0
 36 43  1  0  0  0  0
 37 44  1  0  0  0  0
 39 45  1  0  0  0  0
 39 46  1  0  0  0  0
 40 44  2  0  0  0  0
 45 47  1  0  0  0  0
 46 48  1  0  0  0  0
 47 49  1  0  0  0  0
 47 50  1  1  0  0  0
 48 51  1  1  0  0  0
 48 49  1  0  0  0  0
 49 52  1  6  0  0  0
 50 53  1  0  0  0  0
 54 52  1  1  0  0  0
 54 55  1  0  0  0  0
 54 56  1  0  0  0  0
 55 57  1  0  0  0  0
 56 58  1  0  0  0  0
 57 59  1  0  0  0  0
 57 60  1  6  0  0  0
 58 61  1  6  0  0  0
 58 59  1  0  0  0  0
 59 62  1  1  0  0  0
 60 63  1  0  0  0  0
M  END
> <PUBCHEM_COMPOUND_ID_TYPE>
0

> <PUBCHEM_TOTAL_CHARGE>
0

> <PUBCHEM_SUBSTANCE_ID>
254761708

> <PUBCHEM_SUBSTANCE_VERSION>
10

> <PUBCHEM_EXT_DATASOURCE_NAME>
4398

> <PUBCHEM_EXT_DATASOURCE_REGID>
71751-41-2

> <PUBCHEM_SUBSTANCE_COMMENT>
BOC Sciences provides a wide range of research chemicals and biochemicals including inhibitors, building blocks, GMP Products, impurities and metabolites, APIs for Veterinary, Natural Compounds, ADCs, Stem Cell Molecule and chiral compounds. We offer Abamectin (CAS:71751-41-2).

> <PUBCHEM_SUBSTANCE_SYNONYM>
Abamectin
71751-41-2

> <PUBCHEM_GENERIC_REGISTRY_NAME>
71751-41-2

> <PUBCHEM_XREF_EXT_ID>
71751-41-2

> <PUBCHEM_EXT_DATASOURCE_URL>
https://www.bocsci.com/

> <PUBCHEM_EXT_SUBSTANCE_URL>
https://bio-fermen.bocsci.com/product/abamectin-cas-71751-41-2-2786.html

> <PUBCHEM_CID_ASSOCIATIONS>
72208326  1

> <PUBCHEM_COORDINATE_TYPE>
1
3

> <PUBCHEM_BONDANNOTATIONS>
13  17  5
14  19  6
20  15  6
24  30  6
26  32  6
28  65  6
39  32  6
33  41  6
34  42  5
47  50  5
48  51  5
49  52  6
54  52  5
57  60  6
58  61  6
59  62  5
6  11  5
7  12  5
8  64  5

$$$$
