184601
  -OEChem-03282215332D

 24 25  0     0  0  0  0  0  0999 V2000
    2.0933   -2.7710    0.0000 Cl  0  0  0  0  0  0  0  0  0  0  0  0
    3.4782   -1.6496    0.0000 S   0  0  0  0  0  0  0  0  0  0  0  0
    7.9030    1.4838    0.0000 O   0  5  0  0  0  0  0  0  0  0  0  0
    6.7440    2.7710    0.0000 O   0  0  0  0  0  0  0  0  0  0  0  0
    4.4487    0.8450    0.0000 N   0  0  0  0  0  0  0  0  0  0  0  0
    4.9487    2.3838    0.0000 N   0  0  0  0  0  0  0  0  0  0  0  0
    6.2088    1.1237    0.0000 N   0  0  0  0  0  0  0  0  0  0  0  0
    6.9519    1.7929    0.0000 N   0  3  0  0  0  0  0  0  0  0  0  0
    2.0000   -0.9914    0.0000 N   0  0  0  0  0  0  0  0  0  0  0  0
    3.6397    1.4328    0.0000 C   0  0  0  0  0  0  0  0  0  0  0  0
    4.4487   -0.1550    0.0000 C   0  0  0  0  0  0  0  0  0  0  0  0
    3.9487    2.3838    0.0000 C   0  0  0  0  0  0  0  0  0  0  0  0
    5.2577    1.4328    0.0000 C   0  0  0  0  0  0  0  0  0  0  0  0
    3.5827   -0.6550    0.0000 C   0  0  0  0  0  0  0  0  0  0  0  0
    2.6691   -0.2483    0.0000 C   0  0  0  0  0  0  0  0  0  0  0  0
    2.5000   -1.8575    0.0000 C   0  0  0  0  0  0  0  0  0  0  0  0
    3.0733    1.6849    0.0000 H   0  0  0  0  0  0  0  0  0  0  0  0
    3.3297    0.8958    0.0000 H   0  0  0  0  0  0  0  0  0  0  0  0
    4.6608   -0.7376    0.0000 H   0  0  0  0  0  0  0  0  0  0  0  0
    5.0593   -0.0474    0.0000 H   0  0  0  0  0  0  0  0  0  0  0  0
    4.0135    3.0004    0.0000 H   0  0  0  0  0  0  0  0  0  0  0  0
    3.3422    2.5127    0.0000 H   0  0  0  0  0  0  0  0  0  0  0  0
    6.3377    0.5173    0.0000 H   0  0  0  0  0  0  0  0  0  0  0  0
    2.5402    0.3582    0.0000 H   0  0  0  0  0  0  0  0  0  0  0  0
  1 16  1  0  0  0  0
  2 14  1  0  0  0  0
  2 16  1  0  0  0  0
  3  8  1  0  0  0  0
  4  8  2  0  0  0  0
  5 10  1  0  0  0  0
  5 11  1  0  0  0  0
  5 13  1  0  0  0  0
  6 12  1  0  0  0  0
  6 13  2  0  0  0  0
  7  8  1  0  0  0  0
  7 13  1  0  0  0  0
  7 23  1  0  0  0  0
  9 15  1  0  0  0  0
  9 16  2  0  0  0  0
 10 12  1  0  0  0  0
 10 17  1  0  0  0  0
 10 18  1  0  0  0  0
 11 14  1  0  0  0  0
 11 19  1  0  0  0  0
 11 20  1  0  0  0  0
 12 21  1  0  0  0  0
 12 22  1  0  0  0  0
 14 15  2  0  0  0  0
 15 24  1  0  0  0  0
M  CHG  2   3  -1   8   1
M  END
> <PUBCHEM_COMPOUND_CID>
184601

> <PUBCHEM_COMPOUND_CANONICALIZED>
1

> <PUBCHEM_CACTVS_COMPLEXITY>
310

> <PUBCHEM_CACTVS_HBOND_ACCEPTOR>
5

> <PUBCHEM_CACTVS_HBOND_DONOR>
1

> <PUBCHEM_CACTVS_ROTATABLE_BOND>
3

> <PUBCHEM_CACTVS_SUBSKEYS>
AAADccBjsABEAAAAAAAAAAAAAAAAAWIAAAAAAAAAAAAAAAABgAAAHAYcAAAACADBUgQtgRNqUAilABBnZQCA8KFRCDhFUAwoRACAQABASQAUAAgAAALAAAAAAAAAAAAAAAAAAAAAAAAAAAAAAAAAAAAAAA==

> <PUBCHEM_IUPAC_OPENEYE_NAME>
N-[1-[(2-chlorothiazol-5-yl)methyl]-4,5-dihydroimidazol-2-yl]nitramide

> <PUBCHEM_IUPAC_CAS_NAME>
N-[1-[(2-chloro-5-thiazolyl)methyl]-4,5-dihydroimidazol-2-yl]nitramide

> <PUBCHEM_IUPAC_NAME_MARKUP>
<I>N</I>-[1-[(2-chloro-1,3-thiazol-5-yl)methyl]-4,5-dihydroimidazol-2-yl]nitramide

> <PUBCHEM_IUPAC_NAME>
N-[1-[(2-chloro-1,3-thiazol-5-yl)methyl]-4,5-dihydroimidazol-2-yl]nitramide

> <PUBCHEM_IUPAC_SYSTEMATIC_NAME>
N-[1-[(2-chloranyl-1,3-thiazol-5-yl)methyl]-4,5-dihydroimidazol-2-yl]nitramide

> <PUBCHEM_IUPAC_TRADITIONAL_NAME>
N-[1-[(2-chlorothiazol-5-yl)methyl]-2-imidazolin-2-yl]nitramide

> <PUBCHEM_IUPAC_INCHI>
InChI=1S/C7H8ClN5O2S/c8-6-10-3-5(16-6)4-12-2-1-9-7(12)11-13(14)15/h3H,1-2,4H2,(H,9,11)

> <PUBCHEM_IUPAC_INCHIKEY>
OWRSHPAYDYCHSJ-UHFFFAOYSA-N

> <PUBCHEM_XLOGP3_AA>
0.9

> <PUBCHEM_EXACT_MASS>
261.0087234

> <PUBCHEM_MOLECULAR_FORMULA>
C7H8ClN5O2S

> <PUBCHEM_MOLECULAR_WEIGHT>
261.69

> <PUBCHEM_OPENEYE_CAN_SMILES>
C1CN(C(=N1)N[N+](=O)[O-])CC2=CN=C(S2)Cl

> <PUBCHEM_OPENEYE_ISO_SMILES>
C1CN(C(=N1)N[N+](=O)[O-])CC2=CN=C(S2)Cl

> <PUBCHEM_CACTVS_TPSA>
115

> <PUBCHEM_MONOISOTOPIC_WEIGHT>
261.0087234

> <PUBCHEM_TOTAL_CHARGE>
0

> <PUBCHEM_HEAVY_ATOM_COUNT>
16

> <PUBCHEM_ATOM_DEF_STEREO_COUNT>
0

> <PUBCHEM_ATOM_UDEF_STEREO_COUNT>
0

> <PUBCHEM_BOND_DEF_STEREO_COUNT>
0

> <PUBCHEM_BOND_UDEF_STEREO_COUNT>
0

> <PUBCHEM_ISOTOPIC_ATOM_COUNT>
0

> <PUBCHEM_COMPONENT_COUNT>
1

> <PUBCHEM_CACTVS_TAUTO_COUNT>
2

> <PUBCHEM_COORDINATE_TYPE>
1
5
255

> <PUBCHEM_BONDANNOTATIONS>
14  15  8
2  14  8
2  16  8
9  15  8
9  16  8

$$$$
